/*---------------------------------------------------------------------------*\
| =========                 |                                                 |
| \\      /  F ield         | OpenFOAM: The Open Source CFD Toolbox           |
|  \\    /   O peration     | Version:  2406                                  |
|   \\  /    A nd           | Website:  www.openfoam.com                      |
|    \\/     M anipulation  |                                                 |
\*---------------------------------------------------------------------------*/
Build  : _9bfe8264-20241212 OPENFOAM=2406 patch=241212 version=2406
Arch   : "LSB;label=32;scalar=64"
Exec   : simpleFoam
Date   : Mar 03 2025
Time   : 13:00:40
Host   : DESKTOP-G7IOTQ0
PID    : 25115
I/O    : uncollated
Case   : /home/zahar/ct/Miniscience/lab3_OpenFOAM/samples/rotorDisk
nProcs : 1
trapFpe: Floating point exception trapping enabled (FOAM_SIGFPE).
fileModificationChecking : Monitoring run-time modified files using timeStampMaster (fileModificationSkew 5, maxFileModificationPolls 20)
allowSystemOperations : Allowing user-supplied system call operations

// * * * * * * * * * * * * * * * * * * * * * * * * * * * * * * * * * * * * * //
Create time

Create mesh for time = 0


SIMPLE: convergence criteria
    field U	 tolerance 0.0001
    field p	 tolerance 0.001
    field "(k|epsilon|omega)"	 tolerance 0.001

Reading field p

Reading field U

Reading/calculating face flux field phi

Selecting incompressible transport model Newtonian
Selecting turbulence model type RAS
Selecting RAS turbulence model kOmegaSST
Selecting patchDistMethod meshWave
RAS
{
    RASModel        kOmegaSST;
    turbulence      on;
    printCoeffs     on;
    alphaK1         0.85;
    alphaK2         1;
    alphaOmega1     0.5;
    alphaOmega2     0.856;
    gamma1          0.55555556;
    gamma2          0.44;
    beta1           0.075;
    beta2           0.0828;
    betaStar        0.09;
    a1              0.31;
    b1              1;
    c1              10;
    F3              false;
    decayControl    false;
    kInf            0;
    omegaInf        0;
}

No MRF models present

Creating finite volume options from "system/fvOptions"

Selecting finite volume options type rotorDisk
    Source: disk
    - selecting cells using cellZones (rotatingZone)
    - selected 1148 cell(s) with volume 0.0019630486
    Selecting trimModel fixedTrim
    Constructing blade profiles:
    - creating lookup profile profile1
    Rotor gometry:
    - disk diameter = 0.49990727
    - disk area     = 0.19627672
    - origin        = (0 0 0)
    - r-axis        = (0 0 1)
    - psi-axis      = (1 0 0)
    - z-axis        = (0 1 0)

Starting time loop

Time = 1

rotorDisk output:
    min/max(AOA)   = -3.7917594, 39.816713
    Effective drag = -43.94535
    Effective lift = 351.4031
smoothSolver:  Solving for Ux, Initial residual = 1, Final residual = 0.076986209, No Iterations 9
smoothSolver:  Solving for Uy, Initial residual = 1, Final residual = 0.087672875, No Iterations 9
smoothSolver:  Solving for Uz, Initial residual = 1, Final residual = 0.076922548, No Iterations 9
GAMG:  Solving for p, Initial residual = 1, Final residual = 0.087532108, No Iterations 5
time step continuity errors : sum local = 0.0028715864, global = -0.00050439008, cumulative = -0.00050439008
smoothSolver:  Solving for omega, Initial residual = 1, Final residual = 0.087929485, No Iterations 5
smoothSolver:  Solving for k, Initial residual = 1, Final residual = 0.086808342, No Iterations 6
ExecutionTime = 0.34 s  ClockTime = 0 s

Time = 2

rotorDisk output:
    min/max(AOA)   = -10.342538, 1.81015
    Effective drag = -70.889108
    Effective lift = 767.00694
smoothSolver:  Solving for Ux, Initial residual = 0.5837369, Final residual = 0.044211641, No Iterations 6
smoothSolver:  Solving for Uy, Initial residual = 0.25466755, Final residual = 0.022386038, No Iterations 9
smoothSolver:  Solving for Uz, Initial residual = 0.58046721, Final residual = 0.043224016, No Iterations 6
GAMG:  Solving for p, Initial residual = 0.17382233, Final residual = 0.016561675, No Iterations 4
time step continuity errors : sum local = 0.016020455, global = -0.0016408869, cumulative = -0.002145277
smoothSolver:  Solving for omega, Initial residual = 0.2520322, Final residual = 0.019412972, No Iterations 7
smoothSolver:  Solving for k, Initial residual = 0.34273589, Final residual = 0.026383177, No Iterations 8
ExecutionTime = 0.5 s  ClockTime = 0 s

Time = 3

rotorDisk output:
    min/max(AOA)   = -26.735552, 38.071801
    Effective drag = -276.23791
    Effective lift = 1792.8205
smoothSolver:  Solving for Ux, Initial residual = 0.58180326, Final residual = 0.054963994, No Iterations 5
smoothSolver:  Solving for Uy, Initial residual = 0.2286908, Final residual = 0.022523787, No Iterations 7
smoothSolver:  Solving for Uz, Initial residual = 0.58842053, Final residual = 0.054998171, No Iterations 5
GAMG:  Solving for p, Initial residual = 0.1495766, Final residual = 0.0085135218, No Iterations 5
time step continuity errors : sum local = 0.014606928, global = -0.0018086015, cumulative = -0.0039538784
smoothSolver:  Solving for omega, Initial residual = 0.14374941, Final residual = 0.013275949, No Iterations 7
smoothSolver:  Solving for k, Initial residual = 0.22954172, Final residual = 0.018516295, No Iterations 8
ExecutionTime = 0.68 s  ClockTime = 1 s

Time = 4

rotorDisk output:
    min/max(AOA)   = -22.339017, 5.6907475
    Effective drag = -276.16423
    Effective lift = 1887.9269
smoothSolver:  Solving for Ux, Initial residual = 0.55166899, Final residual = 0.048399434, No Iterations 5
smoothSolver:  Solving for Uy, Initial residual = 0.23947555, Final residual = 0.022718691, No Iterations 6
smoothSolver:  Solving for Uz, Initial residual = 0.56066188, Final residual = 0.047762831, No Iterations 5
GAMG:  Solving for p, Initial residual = 0.17677882, Final residual = 0.014149225, No Iterations 4
time step continuity errors : sum local = 0.032726092, global = -0.00318153, cumulative = -0.0071354084
smoothSolver:  Solving for omega, Initial residual = 0.12784936, Final residual = 0.0094321028, No Iterations 7
smoothSolver:  Solving for k, Initial residual = 0.19111702, Final residual = 0.015601372, No Iterations 7
ExecutionTime = 0.85 s  ClockTime = 1 s

Time = 5

rotorDisk output:
    min/max(AOA)   = -23.433608, 33.603043
    Effective drag = -279.4801
    Effective lift = 1941.0735
smoothSolver:  Solving for Ux, Initial residual = 0.4792413, Final residual = 0.045559071, No Iterations 5
smoothSolver:  Solving for Uy, Initial residual = 0.22752023, Final residual = 0.019489498, No Iterations 6
smoothSolver:  Solving for Uz, Initial residual = 0.48690457, Final residual = 0.045303854, No Iterations 5
GAMG:  Solving for p, Initial residual = 0.11594703, Final residual = 0.0090063352, No Iterations 4
time step continuity errors : sum local = 0.044178354, global = -0.003885433, cumulative = -0.011020841
smoothSolver:  Solving for omega, Initial residual = 0.11561291, Final residual = 0.0083831612, No Iterations 5
smoothSolver:  Solving for k, Initial residual = 0.14830068, Final residual = 0.011158049, No Iterations 7
ExecutionTime = 1.01 s  ClockTime = 1 s

Time = 6

rotorDisk output:
    min/max(AOA)   = -24.451498, 12.15857
    Effective drag = -271.88879
    Effective lift = 1921.2763
smoothSolver:  Solving for Ux, Initial residual = 0.42518381, Final residual = 0.040331014, No Iterations 5
smoothSolver:  Solving for Uy, Initial residual = 0.20865387, Final residual = 0.018388645, No Iterations 6
smoothSolver:  Solving for Uz, Initial residual = 0.42871538, Final residual = 0.040194238, No Iterations 5
GAMG:  Solving for p, Initial residual = 0.10127668, Final residual = 0.0079172126, No Iterations 4
time step continuity errors : sum local = 0.049463208, global = -0.0021700548, cumulative = -0.013190896
smoothSolver:  Solving for omega, Initial residual = 0.10352159, Final residual = 0.0097661047, No Iterations 4
smoothSolver:  Solving for k, Initial residual = 0.13957857, Final residual = 0.01117131, No Iterations 7
ExecutionTime = 1.18 s  ClockTime = 1 s

Time = 7

rotorDisk output:
    min/max(AOA)   = -26.183836, -5.4408416
    Effective drag = -262.03055
    Effective lift = 1879.5457
smoothSolver:  Solving for Ux, Initial residual = 0.39060183, Final residual = 0.034201375, No Iterations 5
smoothSolver:  Solving for Uy, Initial residual = 0.19225218, Final residual = 0.017283605, No Iterations 6
smoothSolver:  Solving for Uz, Initial residual = 0.39047891, Final residual = 0.033869869, No Iterations 5
GAMG:  Solving for p, Initial residual = 0.093208866, Final residual = 0.0068347984, No Iterations 4
time step continuity errors : sum local = 0.04482113, global = 0.0014232071, cumulative = -0.011767689
smoothSolver:  Solving for omega, Initial residual = 0.094896548, Final residual = 0.0092000937, No Iterations 4
smoothSolver:  Solving for k, Initial residual = 0.13112562, Final residual = 0.011674275, No Iterations 7
ExecutionTime = 1.34 s  ClockTime = 1 s

Time = 8

rotorDisk output:
    min/max(AOA)   = -49.26763, -5.223258
    Effective drag = -251.28985
    Effective lift = 1825.5021
smoothSolver:  Solving for Ux, Initial residual = 0.35623361, Final residual = 0.028904808, No Iterations 5
smoothSolver:  Solving for Uy, Initial residual = 0.17989288, Final residual = 0.015475162, No Iterations 6
smoothSolver:  Solving for Uz, Initial residual = 0.35539347, Final residual = 0.02853987, No Iterations 5
GAMG:  Solving for p, Initial residual = 0.084812351, Final residual = 0.0058919229, No Iterations 4
time step continuity errors : sum local = 0.038391943, global = 0.0041768205, cumulative = -0.0075908686
smoothSolver:  Solving for omega, Initial residual = 0.085345272, Final residual = 0.0070731023, No Iterations 5
smoothSolver:  Solving for k, Initial residual = 0.11409121, Final residual = 0.0089222533, No Iterations 8
ExecutionTime = 1.51 s  ClockTime = 1 s

Time = 9

rotorDisk output:
    min/max(AOA)   = -66.267275, -5.3173985
    Effective drag = -240.98956
    Effective lift = 1772.0826
smoothSolver:  Solving for Ux, Initial residual = 0.32206213, Final residual = 0.026099964, No Iterations 5
smoothSolver:  Solving for Uy, Initial residual = 0.16588853, Final residual = 0.014191884, No Iterations 6
smoothSolver:  Solving for Uz, Initial residual = 0.32335578, Final residual = 0.026027363, No Iterations 5
GAMG:  Solving for p, Initial residual = 0.07759911, Final residual = 0.0050166944, No Iterations 4
time step continuity errors : sum local = 0.032250827, global = 0.0046010315, cumulative = -0.0029898371
smoothSolver:  Solving for omega, Initial residual = 0.071923198, Final residual = 0.0055709292, No Iterations 5
smoothSolver:  Solving for k, Initial residual = 0.090737099, Final residual = 0.008029679, No Iterations 8
ExecutionTime = 1.67 s  ClockTime = 2 s

Time = 10

rotorDisk output:
    min/max(AOA)   = -73.003099, -5.6307685
    Effective drag = -232.64912
    Effective lift = 1728.984
smoothSolver:  Solving for Ux, Initial residual = 0.29286242, Final residual = 0.024477321, No Iterations 5
smoothSolver:  Solving for Uy, Initial residual = 0.14719801, Final residual = 0.013010255, No Iterations 6
smoothSolver:  Solving for Uz, Initial residual = 0.29590187, Final residual = 0.024698755, No Iterations 5
GAMG:  Solving for p, Initial residual = 0.069682868, Final residual = 0.0043392636, No Iterations 4
time step continuity errors : sum local = 0.027898381, global = 0.0038853101, cumulative = 0.00089547299
smoothSolver:  Solving for omega, Initial residual = 0.062275877, Final residual = 0.0057357792, No Iterations 4
smoothSolver:  Solving for k, Initial residual = 0.075165418, Final residual = 0.0069611183, No Iterations 8
ExecutionTime = 1.84 s  ClockTime = 2 s

Time = 11

rotorDisk output:
    min/max(AOA)   = -76.047799, -6.0407193
    Effective drag = -226.38998
    Effective lift = 1697.3112
smoothSolver:  Solving for Ux, Initial residual = 0.26738807, Final residual = 0.023178887, No Iterations 5
smoothSolver:  Solving for Uy, Initial residual = 0.12699137, Final residual = 0.01165607, No Iterations 6
smoothSolver:  Solving for Uz, Initial residual = 0.27084137, Final residual = 0.023565229, No Iterations 5
GAMG:  Solving for p, Initial residual = 0.062044794, Final residual = 0.003886966, No Iterations 4
time step continuity errors : sum local = 0.024950045, global = 0.0029732143, cumulative = 0.0038686873
smoothSolver:  Solving for omega, Initial residual = 0.054633527, Final residual = 0.0037431521, No Iterations 5
smoothSolver:  Solving for k, Initial residual = 0.0628287, Final residual = 0.0058931661, No Iterations 8
ExecutionTime = 2.01 s  ClockTime = 2 s

Time = 12

rotorDisk output:
    min/max(AOA)   = -77.330129, -6.4695833
    Effective drag = -221.98853
    Effective lift = 1675.7327
smoothSolver:  Solving for Ux, Initial residual = 0.24345846, Final residual = 0.021590793, No Iterations 5
smoothSolver:  Solving for Uy, Initial residual = 0.10737433, Final residual = 0.010373274, No Iterations 6
smoothSolver:  Solving for Uz, Initial residual = 0.24648335, Final residual = 0.02214344, No Iterations 5
GAMG:  Solving for p, Initial residual = 0.055219249, Final residual = 0.0037129403, No Iterations 4
time step continuity errors : sum local = 0.023386143, global = 0.0019435413, cumulative = 0.0058122286
smoothSolver:  Solving for omega, Initial residual = 0.04841324, Final residual = 0.0036523954, No Iterations 5
smoothSolver:  Solving for k, Initial residual = 0.05208577, Final residual = 0.0050546399, No Iterations 8
ExecutionTime = 2.16 s  ClockTime = 2 s

Time = 13

rotorDisk output:
    min/max(AOA)   = -77.687483, -6.8673548
    Effective drag = -219.1993
    Effective lift = 1662.6618
smoothSolver:  Solving for Ux, Initial residual = 0.21462943, Final residual = 0.018957825, No Iterations 5
smoothSolver:  Solving for Uy, Initial residual = 0.088805245, Final residual = 0.006494406, No Iterations 7
smoothSolver:  Solving for Uz, Initial residual = 0.21829097, Final residual = 0.019697766, No Iterations 5
GAMG:  Solving for p, Initial residual = 0.049279133, Final residual = 0.0035879989, No Iterations 4
time step continuity errors : sum local = 0.021705473, global = 0.00062578375, cumulative = 0.0064380124
smoothSolver:  Solving for omega, Initial residual = 0.043246687, Final residual = 0.0038958927, No Iterations 5
smoothSolver:  Solving for k, Initial residual = 0.043649793, Final residual = 0.003518948, No Iterations 9
ExecutionTime = 2.32 s  ClockTime = 2 s

Time = 14

rotorDisk output:
    min/max(AOA)   = -77.434637, -7.2227574
    Effective drag = -217.76365
    Effective lift = 1656.309
smoothSolver:  Solving for Ux, Initial residual = 0.18343018, Final residual = 0.015699838, No Iterations 5
smoothSolver:  Solving for Uy, Initial residual = 0.073171722, Final residual = 0.005333809, No Iterations 7
smoothSolver:  Solving for Uz, Initial residual = 0.18710993, Final residual = 0.016484637, No Iterations 5
GAMG:  Solving for p, Initial residual = 0.044013842, Final residual = 0.0032041544, No Iterations 4
time step continuity errors : sum local = 0.018334355, global = -0.00077485948, cumulative = 0.0056631529
smoothSolver:  Solving for omega, Initial residual = 0.040769707, Final residual = 0.0031104207, No Iterations 6
smoothSolver:  Solving for k, Initial residual = 0.037532078, Final residual = 0.003257971, No Iterations 9
ExecutionTime = 2.48 s  ClockTime = 2 s

Time = 15

rotorDisk output:
    min/max(AOA)   = -76.809225, -7.5008898
    Effective drag = -217.05077
    Effective lift = 1653.0183
smoothSolver:  Solving for Ux, Initial residual = 0.15252505, Final residual = 0.012206113, No Iterations 5
smoothSolver:  Solving for Uy, Initial residual = 0.05965589, Final residual = 0.0057577565, No Iterations 6
smoothSolver:  Solving for Uz, Initial residual = 0.15585503, Final residual = 0.012942759, No Iterations 5
GAMG:  Solving for p, Initial residual = 0.03855412, Final residual = 0.0026568092, No Iterations 4
time step continuity errors : sum local = 0.014275474, global = -0.0013510465, cumulative = 0.0043121064
smoothSolver:  Solving for omega, Initial residual = 0.036107385, Final residual = 0.0031621978, No Iterations 6
smoothSolver:  Solving for k, Initial residual = 0.032768493, Final residual = 0.0031205595, No Iterations 9
ExecutionTime = 2.65 s  ClockTime = 3 s

Time = 16

rotorDisk output:
    min/max(AOA)   = -76.096305, -7.7035288
    Effective drag = -216.53993
    Effective lift = 1650.3618
smoothSolver:  Solving for Ux, Initial residual = 0.12405824, Final residual = 0.0093929632, No Iterations 5
smoothSolver:  Solving for Uy, Initial residual = 0.047802288, Final residual = 0.00440679, No Iterations 6
smoothSolver:  Solving for Uz, Initial residual = 0.12673154, Final residual = 0.0099271624, No Iterations 5
GAMG:  Solving for p, Initial residual = 0.033597329, Final residual = 0.002024655, No Iterations 4
time step continuity errors : sum local = 0.010134845, global = -0.0013225532, cumulative = 0.0029895532
smoothSolver:  Solving for omega, Initial residual = 0.033509995, Final residual = 0.0032986475, No Iterations 6
smoothSolver:  Solving for k, Initial residual = 0.028636711, Final residual = 0.0024362077, No Iterations 10
ExecutionTime = 2.81 s  ClockTime = 3 s

Time = 17

rotorDisk output:
    min/max(AOA)   = -75.524024, -7.8618499
    Effective drag = -215.94062
    Effective lift = 1647.3759
smoothSolver:  Solving for Ux, Initial residual = 0.099682424, Final residual = 0.0077160576, No Iterations 5
smoothSolver:  Solving for Uy, Initial residual = 0.038215774, Final residual = 0.0034586912, No Iterations 6
smoothSolver:  Solving for Uz, Initial residual = 0.10145794, Final residual = 0.0079585112, No Iterations 5
GAMG:  Solving for p, Initial residual = 0.029638618, Final residual = 0.0026818321, No Iterations 3
time step continuity errors : sum local = 0.012485716, global = -0.0013093028, cumulative = 0.0016802504
smoothSolver:  Solving for omega, Initial residual = 0.0307116, Final residual = 0.0026043747, No Iterations 7
smoothSolver:  Solving for k, Initial residual = 0.025444083, Final residual = 0.0023821595, No Iterations 10
ExecutionTime = 2.98 s  ClockTime = 3 s

Time = 18

rotorDisk output:
    min/max(AOA)   = -75.029457, -7.9876483
    Effective drag = -215.07817
    Effective lift = 1643.3941
smoothSolver:  Solving for Ux, Initial residual = 0.078115767, Final residual = 0.0067537011, No Iterations 5
smoothSolver:  Solving for Uy, Initial residual = 0.029592373, Final residual = 0.0027963944, No Iterations 6
smoothSolver:  Solving for Uz, Initial residual = 0.07918555, Final residual = 0.0068810901, No Iterations 5
GAMG:  Solving for p, Initial residual = 0.026203233, Final residual = 0.0018971782, No Iterations 3
time step continuity errors : sum local = 0.0083519795, global = -0.00095344081, cumulative = 0.00072680958
smoothSolver:  Solving for omega, Initial residual = 0.027675138, Final residual = 0.0026142082, No Iterations 7
smoothSolver:  Solving for k, Initial residual = 0.023469869, Final residual = 0.002327679, No Iterations 10
ExecutionTime = 3.16 s  ClockTime = 3 s

Time = 19

rotorDisk output:
    min/max(AOA)   = -74.654208, -8.0888344
    Effective drag = -213.90729
    Effective lift = 1638.1642
smoothSolver:  Solving for Ux, Initial residual = 0.062479997, Final residual = 0.006099026, No Iterations 5
smoothSolver:  Solving for Uy, Initial residual = 0.024831504, Final residual = 0.0020549536, No Iterations 7
smoothSolver:  Solving for Uz, Initial residual = 0.063406065, Final residual = 0.0062334201, No Iterations 5
GAMG:  Solving for p, Initial residual = 0.022976919, Final residual = 0.0015270209, No Iterations 3
time step continuity errors : sum local = 0.0063466515, global = -0.00059168283, cumulative = 0.00013512675
smoothSolver:  Solving for omega, Initial residual = 0.02541071, Final residual = 0.0020473515, No Iterations 8
smoothSolver:  Solving for k, Initial residual = 0.02239671, Final residual = 0.0018259536, No Iterations 11
ExecutionTime = 3.34 s  ClockTime = 3 s

Time = 20

rotorDisk output:
    min/max(AOA)   = -74.434352, -8.1757249
    Effective drag = -212.45977
    Effective lift = 1631.7698
smoothSolver:  Solving for Ux, Initial residual = 0.050465679, Final residual = 0.0043679707, No Iterations 6
smoothSolver:  Solving for Uy, Initial residual = 0.021960692, Final residual = 0.0021131012, No Iterations 7
smoothSolver:  Solving for Uz, Initial residual = 0.05113156, Final residual = 0.0044551431, No Iterations 6
GAMG:  Solving for p, Initial residual = 0.020061653, Final residual = 0.001767005, No Iterations 3
time step continuity errors : sum local = 0.0069833408, global = -0.00028835492, cumulative = -0.00015322817
smoothSolver:  Solving for omega, Initial residual = 0.023293497, Final residual = 0.0020395226, No Iterations 8
smoothSolver:  Solving for k, Initial residual = 0.021615273, Final residual = 0.0021510562, No Iterations 10
ExecutionTime = 3.51 s  ClockTime = 3 s

Time = 21

rotorDisk output:
    min/max(AOA)   = -74.292763, -8.2451436
    Effective drag = -210.79331
    Effective lift = 1624.4354
smoothSolver:  Solving for Ux, Initial residual = 0.04372691, Final residual = 0.0043381542, No Iterations 6
smoothSolver:  Solving for Uy, Initial residual = 0.021023935, Final residual = 0.0017298572, No Iterations 8
smoothSolver:  Solving for Uz, Initial residual = 0.043831221, Final residual = 0.003452649, No Iterations 7
GAMG:  Solving for p, Initial residual = 0.018776246, Final residual = 0.0011924966, No Iterations 4
time step continuity errors : sum local = 0.0045245128, global = -0.0001965016, cumulative = -0.00034972977
smoothSolver:  Solving for omega, Initial residual = 0.021542256, Final residual = 0.0020212684, No Iterations 8
smoothSolver:  Solving for k, Initial residual = 0.020995339, Final residual = 0.0020570018, No Iterations 10
ExecutionTime = 3.68 s  ClockTime = 4 s

Time = 22

rotorDisk output:
    min/max(AOA)   = -74.199147, -8.3040761
    Effective drag = -208.99544
    Effective lift = 1616.511
smoothSolver:  Solving for Ux, Initial residual = 0.044514259, Final residual = 0.003579643, No Iterations 7
smoothSolver:  Solving for Uy, Initial residual = 0.022210542, Final residual = 0.0018289964, No Iterations 8
smoothSolver:  Solving for Uz, Initial residual = 0.04458079, Final residual = 0.0036093109, No Iterations 7
GAMG:  Solving for p, Initial residual = 0.018864917, Final residual = 0.0014155706, No Iterations 4
time step continuity errors : sum local = 0.0051704132, global = -5.7997475e-05, cumulative = -0.00040772725
smoothSolver:  Solving for omega, Initial residual = 0.019866608, Final residual = 0.001560899, No Iterations 9
smoothSolver:  Solving for k, Initial residual = 0.020432632, Final residual = 0.0019528278, No Iterations 10
ExecutionTime = 3.85 s  ClockTime = 4 s

Time = 23

rotorDisk output:
    min/max(AOA)   = -74.130474, -8.3516394
    Effective drag = -207.15341
    Effective lift = 1608.4496
smoothSolver:  Solving for Ux, Initial residual = 0.046303354, Final residual = 0.0036753135, No Iterations 7
smoothSolver:  Solving for Uy, Initial residual = 0.022087527, Final residual = 0.0018091377, No Iterations 8
smoothSolver:  Solving for Uz, Initial residual = 0.046445359, Final residual = 0.0036995389, No Iterations 7
GAMG:  Solving for p, Initial residual = 0.019859052, Final residual = 0.0015602041, No Iterations 4
time step continuity errors : sum local = 0.0055171436, global = -0.00012639961, cumulative = -0.00053412686
smoothSolver:  Solving for omega, Initial residual = 0.018250324, Final residual = 0.0015206768, No Iterations 9
smoothSolver:  Solving for k, Initial residual = 0.019787619, Final residual = 0.0018454697, No Iterations 10
ExecutionTime = 4.02 s  ClockTime = 4 s

Time = 24

rotorDisk output:
    min/max(AOA)   = -74.072494, -8.391238
    Effective drag = -205.35785
    Effective lift = 1600.5869
smoothSolver:  Solving for Ux, Initial residual = 0.048814935, Final residual = 0.0038709808, No Iterations 7
smoothSolver:  Solving for Uy, Initial residual = 0.02181713, Final residual = 0.0017655274, No Iterations 8
smoothSolver:  Solving for Uz, Initial residual = 0.048977451, Final residual = 0.0038743234, No Iterations 7
GAMG:  Solving for p, Initial residual = 0.021248355, Final residual = 0.0016405487, No Iterations 4
time step continuity errors : sum local = 0.0056178255, global = -0.00029186029, cumulative = -0.00082598715
smoothSolver:  Solving for omega, Initial residual = 0.016943451, Final residual = 0.0014753117, No Iterations 9
smoothSolver:  Solving for k, Initial residual = 0.01908057, Final residual = 0.0017313085, No Iterations 10
ExecutionTime = 4.19 s  ClockTime = 4 s

Time = 25

rotorDisk output:
    min/max(AOA)   = -74.019075, -8.4243106
    Effective drag = -203.64307
    Effective lift = 1593.1141
smoothSolver:  Solving for Ux, Initial residual = 0.051048731, Final residual = 0.0041023783, No Iterations 7
smoothSolver:  Solving for Uy, Initial residual = 0.021469609, Final residual = 0.001726773, No Iterations 8
smoothSolver:  Solving for Uz, Initial residual = 0.051312889, Final residual = 0.0040973214, No Iterations 7
GAMG:  Solving for p, Initial residual = 0.022833312, Final residual = 0.0016824689, No Iterations 4
time step continuity errors : sum local = 0.0055708216, global = -0.00043126982, cumulative = -0.001257257
smoothSolver:  Solving for omega, Initial residual = 0.015892921, Final residual = 0.0014198659, No Iterations 9
smoothSolver:  Solving for k, Initial residual = 0.018179602, Final residual = 0.0016109905, No Iterations 10
ExecutionTime = 4.36 s  ClockTime = 4 s

Time = 26

rotorDisk output:
    min/max(AOA)   = -73.964773, -8.45208
    Effective drag = -202.00801
    Effective lift = 1586.0016
smoothSolver:  Solving for Ux, Initial residual = 0.052687388, Final residual = 0.0042609165, No Iterations 7
smoothSolver:  Solving for Uy, Initial residual = 0.021027459, Final residual = 0.0016783033, No Iterations 8
smoothSolver:  Solving for Uz, Initial residual = 0.053066641, Final residual = 0.0042579939, No Iterations 7
GAMG:  Solving for p, Initial residual = 0.024389432, Final residual = 0.0017070129, No Iterations 4
time step continuity errors : sum local = 0.0054554853, global = -0.00050443662, cumulative = -0.0017616936
smoothSolver:  Solving for omega, Initial residual = 0.015080185, Final residual = 0.0013650009, No Iterations 9
smoothSolver:  Solving for k, Initial residual = 0.017210831, Final residual = 0.0014867788, No Iterations 10
ExecutionTime = 4.52 s  ClockTime = 4 s

Time = 27

rotorDisk output:
    min/max(AOA)   = -73.905886, -8.4757305
    Effective drag = -200.46445
    Effective lift = 1579.3002
smoothSolver:  Solving for Ux, Initial residual = 0.053611184, Final residual = 0.0043416417, No Iterations 7
smoothSolver:  Solving for Uy, Initial residual = 0.020494152, Final residual = 0.0016127622, No Iterations 8
smoothSolver:  Solving for Uz, Initial residual = 0.054084462, Final residual = 0.0043425172, No Iterations 7
GAMG:  Solving for p, Initial residual = 0.025763656, Final residual = 0.0017304102, No Iterations 4
time step continuity errors : sum local = 0.0053322014, global = -0.00052114823, cumulative = -0.0022828418
smoothSolver:  Solving for omega, Initial residual = 0.014532251, Final residual = 0.001313196, No Iterations 9
smoothSolver:  Solving for k, Initial residual = 0.016214663, Final residual = 0.0013627338, No Iterations 10
ExecutionTime = 4.69 s  ClockTime = 5 s

Time = 28

rotorDisk output:
    min/max(AOA)   = -73.841545, -8.4955403
    Effective drag = -199.00673
    Effective lift = 1572.9855
smoothSolver:  Solving for Ux, Initial residual = 0.053875585, Final residual = 0.0043558797, No Iterations 7
smoothSolver:  Solving for Uy, Initial residual = 0.019838905, Final residual = 0.0019563789, No Iterations 7
smoothSolver:  Solving for Uz, Initial residual = 0.054383388, Final residual = 0.0043615382, No Iterations 7
GAMG:  Solving for p, Initial residual = 0.027064945, Final residual = 0.0017600333, No Iterations 4
time step continuity errors : sum local = 0.0052296031, global = -0.00049952122, cumulative = -0.002782363
smoothSolver:  Solving for omega, Initial residual = 0.014236553, Final residual = 0.0012747314, No Iterations 9
smoothSolver:  Solving for k, Initial residual = 0.015116674, Final residual = 0.0012416964, No Iterations 10
ExecutionTime = 4.86 s  ClockTime = 5 s

Time = 29

rotorDisk output:
    min/max(AOA)   = -73.77287, -8.5114202
    Effective drag = -197.68803
    Effective lift = 1567.3086
smoothSolver:  Solving for Ux, Initial residual = 0.053180074, Final residual = 0.0042837054, No Iterations 7
smoothSolver:  Solving for Uy, Initial residual = 0.018883277, Final residual = 0.0018288444, No Iterations 7
smoothSolver:  Solving for Uz, Initial residual = 0.05370332, Final residual = 0.0042924501, No Iterations 7
GAMG:  Solving for p, Initial residual = 0.027640183, Final residual = 0.0017594696, No Iterations 4
time step continuity errors : sum local = 0.0050498759, global = -0.00046826849, cumulative = -0.0032506315
smoothSolver:  Solving for omega, Initial residual = 0.014045295, Final residual = 0.0012478179, No Iterations 9
smoothSolver:  Solving for k, Initial residual = 0.01405601, Final residual = 0.0011242457, No Iterations 10
ExecutionTime = 5.03 s  ClockTime = 5 s

Time = 30

rotorDisk output:
    min/max(AOA)   = -73.700231, -8.5253376
    Effective drag = -196.44589
    Effective lift = 1561.939
smoothSolver:  Solving for Ux, Initial residual = 0.05215609, Final residual = 0.0041989639, No Iterations 7
smoothSolver:  Solving for Uy, Initial residual = 0.017897804, Final residual = 0.0017018142, No Iterations 7
smoothSolver:  Solving for Uz, Initial residual = 0.052661429, Final residual = 0.0042072045, No Iterations 7
GAMG:  Solving for p, Initial residual = 0.027912811, Final residual = 0.0017511614, No Iterations 4
time step continuity errors : sum local = 0.0048642262, global = -0.00042623777, cumulative = -0.0036768693
smoothSolver:  Solving for omega, Initial residual = 0.013834978, Final residual = 0.0012260432, No Iterations 9
smoothSolver:  Solving for k, Initial residual = 0.013054268, Final residual = 0.0012718377, No Iterations 9
ExecutionTime = 5.19 s  ClockTime = 5 s

Time = 31

rotorDisk output:
    min/max(AOA)   = -73.62369, -8.5371031
    Effective drag = -195.25936
    Effective lift = 1556.7963
smoothSolver:  Solving for Ux, Initial residual = 0.050735756, Final residual = 0.004095653, No Iterations 7
smoothSolver:  Solving for Uy, Initial residual = 0.016854807, Final residual = 0.0015801461, No Iterations 7
smoothSolver:  Solving for Uz, Initial residual = 0.051206104, Final residual = 0.0041023206, No Iterations 7
GAMG:  Solving for p, Initial residual = 0.027916997, Final residual = 0.0017328364, No Iterations 4
time step continuity errors : sum local = 0.0046694906, global = -0.00037361175, cumulative = -0.0040504811
smoothSolver:  Solving for omega, Initial residual = 0.013713653, Final residual = 0.0012078148, No Iterations 9
smoothSolver:  Solving for k, Initial residual = 0.012138419, Final residual = 0.0011525828, No Iterations 9
ExecutionTime = 5.35 s  ClockTime = 5 s

Time = 32

rotorDisk output:
    min/max(AOA)   = -73.543776, -8.5467101
    Effective drag = -194.1352
    Effective lift = 1551.9361
smoothSolver:  Solving for Ux, Initial residual = 0.049007292, Final residual = 0.0039822053, No Iterations 7
smoothSolver:  Solving for Uy, Initial residual = 0.015791365, Final residual = 0.0014648021, No Iterations 7
smoothSolver:  Solving for Uz, Initial residual = 0.049422188, Final residual = 0.0039858652, No Iterations 7
GAMG:  Solving for p, Initial residual = 0.027595036, Final residual = 0.0016977323, No Iterations 4
time step continuity errors : sum local = 0.0044487287, global = -0.00032655951, cumulative = -0.0043770406
smoothSolver:  Solving for omega, Initial residual = 0.013737389, Final residual = 0.0011932857, No Iterations 9
smoothSolver:  Solving for k, Initial residual = 0.011259973, Final residual = 0.0010429421, No Iterations 9
ExecutionTime = 5.51 s  ClockTime = 5 s

Time = 33

rotorDisk output:
    min/max(AOA)   = -73.460274, -8.5544569
    Effective drag = -193.0672
    Effective lift = 1547.323
smoothSolver:  Solving for Ux, Initial residual = 0.046982687, Final residual = 0.0038537861, No Iterations 7
smoothSolver:  Solving for Uy, Initial residual = 0.014717495, Final residual = 0.0013583627, No Iterations 7
smoothSolver:  Solving for Uz, Initial residual = 0.047350056, Final residual = 0.0038546601, No Iterations 7
GAMG:  Solving for p, Initial residual = 0.026953112, Final residual = 0.0016407023, No Iterations 4
time step continuity errors : sum local = 0.004196956, global = -0.00028950941, cumulative = -0.00466655
smoothSolver:  Solving for omega, Initial residual = 0.013720694, Final residual = 0.0011761027, No Iterations 9
smoothSolver:  Solving for k, Initial residual = 0.010447667, Final residual = 0.00094346807, No Iterations 9
ExecutionTime = 5.67 s  ClockTime = 6 s

Time = 34

rotorDisk output:
    min/max(AOA)   = -73.373558, -8.5606027
    Effective drag = -192.04506
    Effective lift = 1542.9139
smoothSolver:  Solving for Ux, Initial residual = 0.044933692, Final residual = 0.0037190935, No Iterations 7
smoothSolver:  Solving for Uy, Initial residual = 0.013673917, Final residual = 0.0012598665, No Iterations 7
smoothSolver:  Solving for Uz, Initial residual = 0.045226286, Final residual = 0.0037179655, No Iterations 7
GAMG:  Solving for p, Initial residual = 0.025970727, Final residual = 0.0015626782, No Iterations 4
time step continuity errors : sum local = 0.0039261647, global = -0.00026409589, cumulative = -0.0049306459
smoothSolver:  Solving for omega, Initial residual = 0.013521036, Final residual = 0.0011530954, No Iterations 9
smoothSolver:  Solving for k, Initial residual = 0.0096938405, Final residual = 0.00085573078, No Iterations 9
ExecutionTime = 5.84 s  ClockTime = 6 s

Time = 35

rotorDisk output:
    min/max(AOA)   = -73.283987, -8.5651549
    Effective drag = -191.0533
    Effective lift = 1538.6383
smoothSolver:  Solving for Ux, Initial residual = 0.042795364, Final residual = 0.0035809342, No Iterations 7
smoothSolver:  Solving for Uy, Initial residual = 0.012642737, Final residual = 0.001166678, No Iterations 7
smoothSolver:  Solving for Uz, Initial residual = 0.043032474, Final residual = 0.0035783669, No Iterations 7
GAMG:  Solving for p, Initial residual = 0.024694793, Final residual = 0.0014653275, No Iterations 4
time step continuity errors : sum local = 0.0036423371, global = -0.00024770723, cumulative = -0.0051783531
smoothSolver:  Solving for omega, Initial residual = 0.013373169, Final residual = 0.001138229, No Iterations 9
smoothSolver:  Solving for k, Initial residual = 0.0089534211, Final residual = 0.0007750649, No Iterations 9
ExecutionTime = 6 s  ClockTime = 6 s

Time = 36

rotorDisk output:
    min/max(AOA)   = -73.191457, -8.5682088
    Effective drag = -190.08943
    Effective lift = 1534.4656
smoothSolver:  Solving for Ux, Initial residual = 0.040506807, Final residual = 0.0034373366, No Iterations 7
smoothSolver:  Solving for Uy, Initial residual = 0.011668168, Final residual = 0.0010819756, No Iterations 7
smoothSolver:  Solving for Uz, Initial residual = 0.040698042, Final residual = 0.0034340359, No Iterations 7
GAMG:  Solving for p, Initial residual = 0.023176176, Final residual = 0.001357116, No Iterations 4
time step continuity errors : sum local = 0.0033544071, global = -0.00023643025, cumulative = -0.0054147833
smoothSolver:  Solving for omega, Initial residual = 0.013236862, Final residual = 0.0011257616, No Iterations 9
smoothSolver:  Solving for k, Initial residual = 0.0082625552, Final residual = 0.00069955934, No Iterations 9
ExecutionTime = 6.17 s  ClockTime = 6 s

Time = 37

rotorDisk output:
    min/max(AOA)   = -73.095978, -8.5699043
    Effective drag = -189.15982
    Effective lift = 1530.4081
smoothSolver:  Solving for Ux, Initial residual = 0.038183556, Final residual = 0.0032917641, No Iterations 7
smoothSolver:  Solving for Uy, Initial residual = 0.010745366, Final residual = 0.001007702, No Iterations 7
smoothSolver:  Solving for Uz, Initial residual = 0.038336054, Final residual = 0.0032883537, No Iterations 7
GAMG:  Solving for p, Initial residual = 0.021493241, Final residual = 0.0012466357, No Iterations 4
time step continuity errors : sum local = 0.0030722337, global = -0.00022714648, cumulative = -0.0056419298
smoothSolver:  Solving for omega, Initial residual = 0.012959719, Final residual = 0.0011047113, No Iterations 9
smoothSolver:  Solving for k, Initial residual = 0.0076294378, Final residual = 0.00062981851, No Iterations 9
ExecutionTime = 6.34 s  ClockTime = 6 s

Time = 38

rotorDisk output:
    min/max(AOA)   = -72.99796, -8.5703588
    Effective drag = -188.2582
    Effective lift = 1526.4564
smoothSolver:  Solving for Ux, Initial residual = 0.035879515, Final residual = 0.0031517022, No Iterations 7
smoothSolver:  Solving for Uy, Initial residual = 0.0098882849, Final residual = 0.00094278714, No Iterations 7
smoothSolver:  Solving for Uz, Initial residual = 0.035981438, Final residual = 0.0031488529, No Iterations 7
GAMG:  Solving for p, Initial residual = 0.019837383, Final residual = 0.0011387967, No Iterations 4
time step continuity errors : sum local = 0.0028027433, global = -0.00021729613, cumulative = -0.005859226
smoothSolver:  Solving for omega, Initial residual = 0.012554533, Final residual = 0.001087779, No Iterations 9
smoothSolver:  Solving for k, Initial residual = 0.0070523341, Final residual = 0.00056540735, No Iterations 9
ExecutionTime = 6.51 s  ClockTime = 6 s

Time = 39

rotorDisk output:
    min/max(AOA)   = -72.89772, -8.5696252
    Effective drag = -187.37783
    Effective lift = 1522.5756
smoothSolver:  Solving for Ux, Initial residual = 0.033629449, Final residual = 0.0030165791, No Iterations 7
smoothSolver:  Solving for Uy, Initial residual = 0.0091065221, Final residual = 0.00088632122, No Iterations 7
smoothSolver:  Solving for Uz, Initial residual = 0.03372857, Final residual = 0.0030144874, No Iterations 7
GAMG:  Solving for p, Initial residual = 0.018266564, Final residual = 0.0010361494, No Iterations 4
time step continuity errors : sum local = 0.0025483831, global = -0.00020524528, cumulative = -0.0060644712
smoothSolver:  Solving for omega, Initial residual = 0.012096634, Final residual = 0.0010705418, No Iterations 9
smoothSolver:  Solving for k, Initial residual = 0.0064846481, Final residual = 0.00064605047, No Iterations 8
ExecutionTime = 6.7 s  ClockTime = 7 s

Time = 40

rotorDisk output:
    min/max(AOA)   = -72.795477, -8.567757
    Effective drag = -186.51127
    Effective lift = 1518.7505
smoothSolver:  Solving for Ux, Initial residual = 0.031398219, Final residual = 0.002884779, No Iterations 7
smoothSolver:  Solving for Uy, Initial residual = 0.0083878742, Final residual = 0.00083713416, No Iterations 7
smoothSolver:  Solving for Uz, Initial residual = 0.031472019, Final residual = 0.0028833168, No Iterations 7
GAMG:  Solving for p, Initial residual = 0.016755543, Final residual = 0.00094067347, No Iterations 4
time step continuity errors : sum local = 0.0023119818, global = -0.00019076722, cumulative = -0.0062552385
smoothSolver:  Solving for omega, Initial residual = 0.011584859, Final residual = 0.0010570568, No Iterations 9
smoothSolver:  Solving for k, Initial residual = 0.005982333, Final residual = 0.00058396952, No Iterations 8
ExecutionTime = 6.87 s  ClockTime = 7 s

Time = 41

rotorDisk output:
    min/max(AOA)   = -72.691665, -8.5648003
    Effective drag = -185.65583
    Effective lift = 1514.9643
smoothSolver:  Solving for Ux, Initial residual = 0.029339983, Final residual = 0.0027611184, No Iterations 7
smoothSolver:  Solving for Uy, Initial residual = 0.0077406961, Final residual = 0.00063623285, No Iterations 8
smoothSolver:  Solving for Uz, Initial residual = 0.02940146, Final residual = 0.0027592134, No Iterations 7
GAMG:  Solving for p, Initial residual = 0.015296024, Final residual = 0.00085063131, No Iterations 4
time step continuity errors : sum local = 0.0020885337, global = -0.00017430384, cumulative = -0.0064295423
smoothSolver:  Solving for omega, Initial residual = 0.011119777, Final residual = 0.0010492553, No Iterations 9
smoothSolver:  Solving for k, Initial residual = 0.0055472412, Final residual = 0.00053269145, No Iterations 8
ExecutionTime = 7.04 s  ClockTime = 7 s

Time = 42

rotorDisk output:
    min/max(AOA)   = -72.581322, -8.560573
    Effective drag = -184.77086
    Effective lift = 1510.9984
smoothSolver:  Solving for Ux, Initial residual = 0.027527683, Final residual = 0.0026622581, No Iterations 7
smoothSolver:  Solving for Uy, Initial residual = 0.00721253, Final residual = 0.00061020461, No Iterations 8
smoothSolver:  Solving for Uz, Initial residual = 0.027565674, Final residual = 0.0026599598, No Iterations 7
GAMG:  Solving for p, Initial residual = 0.014058825, Final residual = 0.00077888216, No Iterations 4
time step continuity errors : sum local = 0.0019078154, global = -0.00015828602, cumulative = -0.0065878283
smoothSolver:  Solving for omega, Initial residual = 0.010615574, Final residual = 0.0010341906, No Iterations 9
smoothSolver:  Solving for k, Initial residual = 0.0051379608, Final residual = 0.00049083663, No Iterations 8
ExecutionTime = 7.21 s  ClockTime = 7 s

Time = 43

rotorDisk output:
    min/max(AOA)   = -72.468631, -8.5551857
    Effective drag = -183.89317
    Effective lift = 1507.0427
smoothSolver:  Solving for Ux, Initial residual = 0.025806213, Final residual = 0.0025635058, No Iterations 7
smoothSolver:  Solving for Uy, Initial residual = 0.0067465778, Final residual = 0.00058905079, No Iterations 8
smoothSolver:  Solving for Uz, Initial residual = 0.025835021, Final residual = 0.0025605535, No Iterations 7
GAMG:  Solving for p, Initial residual = 0.013028835, Final residual = 0.0012905294, No Iterations 3
time step continuity errors : sum local = 0.0031526394, global = -0.00017931658, cumulative = -0.0067671449
smoothSolver:  Solving for omega, Initial residual = 0.010068728, Final residual = 0.00084197, No Iterations 10
smoothSolver:  Solving for k, Initial residual = 0.0047750111, Final residual = 0.00045426811, No Iterations 8
ExecutionTime = 7.38 s  ClockTime = 7 s

Time = 44

rotorDisk output:
    min/max(AOA)   = -72.35483, -8.5488779
    Effective drag = -183.0239
    Effective lift = 1503.123
smoothSolver:  Solving for Ux, Initial residual = 0.023992461, Final residual = 0.0019859852, No Iterations 8
smoothSolver:  Solving for Uy, Initial residual = 0.0061457879, Final residual = 0.00056196095, No Iterations 8
smoothSolver:  Solving for Uz, Initial residual = 0.023904553, Final residual = 0.0019750099, No Iterations 8
GAMG:  Solving for p, Initial residual = 0.012314562, Final residual = 0.0012296073, No Iterations 3
time step continuity errors : sum local = 0.0029986315, global = -0.00019712302, cumulative = -0.0069642679
smoothSolver:  Solving for omega, Initial residual = 0.0096385078, Final residual = 0.00083065239, No Iterations 10
smoothSolver:  Solving for k, Initial residual = 0.0044734027, Final residual = 0.00042731435, No Iterations 8
ExecutionTime = 7.55 s  ClockTime = 7 s

Time = 45

rotorDisk output:
    min/max(AOA)   = -72.239639, -8.5417805
    Effective drag = -182.15741
    Effective lift = 1499.2389
smoothSolver:  Solving for Ux, Initial residual = 0.022748654, Final residual = 0.0019042186, No Iterations 8
smoothSolver:  Solving for Uy, Initial residual = 0.0059086877, Final residual = 0.00055250876, No Iterations 8
smoothSolver:  Solving for Uz, Initial residual = 0.02268676, Final residual = 0.001896848, No Iterations 8
GAMG:  Solving for p, Initial residual = 0.011722147, Final residual = 0.0011544928, No Iterations 3
time step continuity errors : sum local = 0.0028071612, global = -0.0002000706, cumulative = -0.0071643385
smoothSolver:  Solving for omega, Initial residual = 0.0092047609, Final residual = 0.0008188809, No Iterations 10
smoothSolver:  Solving for k, Initial residual = 0.0041883119, Final residual = 0.00040462711, No Iterations 8
ExecutionTime = 7.71 s  ClockTime = 8 s

Time = 46

rotorDisk output:
    min/max(AOA)   = -72.124236, -8.5339245
    Effective drag = -181.29094
    Effective lift = 1495.354
smoothSolver:  Solving for Ux, Initial residual = 0.021518903, Final residual = 0.0018265835, No Iterations 8
smoothSolver:  Solving for Uy, Initial residual = 0.0057199366, Final residual = 0.00054625315, No Iterations 8
smoothSolver:  Solving for Uz, Initial residual = 0.021522692, Final residual = 0.0018225071, No Iterations 8
GAMG:  Solving for p, Initial residual = 0.011229884, Final residual = 0.0010939514, No Iterations 3
time step continuity errors : sum local = 0.0026487744, global = -0.00019317437, cumulative = -0.0073575129
smoothSolver:  Solving for omega, Initial residual = 0.0086680953, Final residual = 0.00081227723, No Iterations 10
smoothSolver:  Solving for k, Initial residual = 0.00392939, Final residual = 0.00038457935, No Iterations 8
ExecutionTime = 7.88 s  ClockTime = 8 s

Time = 47

rotorDisk output:
    min/max(AOA)   = -72.008276, -8.5252972
    Effective drag = -180.4231
    Effective lift = 1491.449
smoothSolver:  Solving for Ux, Initial residual = 0.020369587, Final residual = 0.0017527828, No Iterations 8
smoothSolver:  Solving for Uy, Initial residual = 0.0055661909, Final residual = 0.00054196207, No Iterations 8
smoothSolver:  Solving for Uz, Initial residual = 0.020409638, Final residual = 0.0017505512, No Iterations 8
GAMG:  Solving for p, Initial residual = 0.010769436, Final residual = 0.0010382982, No Iterations 3
time step continuity errors : sum local = 0.0025011942, global = -0.00018400015, cumulative = -0.0075415131
smoothSolver:  Solving for omega, Initial residual = 0.0082324567, Final residual = 0.00080591692, No Iterations 10
smoothSolver:  Solving for k, Initial residual = 0.00370026, Final residual = 0.00036645191, No Iterations 8
ExecutionTime = 8.04 s  ClockTime = 8 s

Time = 48

rotorDisk output:
    min/max(AOA)   = -71.891499, -8.5159082
    Effective drag = -179.56005
    Effective lift = 1487.5329
smoothSolver:  Solving for Ux, Initial residual = 0.019300682, Final residual = 0.001685558, No Iterations 8
smoothSolver:  Solving for Uy, Initial residual = 0.0054313964, Final residual = 0.00053962366, No Iterations 8
smoothSolver:  Solving for Uz, Initial residual = 0.019370742, Final residual = 0.0016843859, No Iterations 8
GAMG:  Solving for p, Initial residual = 0.010336661, Final residual = 0.00098489161, No Iterations 3
time step continuity errors : sum local = 0.002358508, global = -0.00017489903, cumulative = -0.0077164121
smoothSolver:  Solving for omega, Initial residual = 0.0078869769, Final residual = 0.00066333912, No Iterations 11
smoothSolver:  Solving for k, Initial residual = 0.0034918909, Final residual = 0.00027043577, No Iterations 9
ExecutionTime = 8.2 s  ClockTime = 8 s

Time = 49

rotorDisk output:
    min/max(AOA)   = -71.773354, -8.5052834
    Effective drag = -178.69932
    Effective lift = 1483.5894
smoothSolver:  Solving for Ux, Initial residual = 0.018343729, Final residual = 0.0016275681, No Iterations 8
smoothSolver:  Solving for Uy, Initial residual = 0.0053068591, Final residual = 0.00044209181, No Iterations 9
smoothSolver:  Solving for Uz, Initial residual = 0.018432041, Final residual = 0.0016266194, No Iterations 8
GAMG:  Solving for p, Initial residual = 0.0099263724, Final residual = 0.00092997612, No Iterations 3
time step continuity errors : sum local = 0.002212492, global = -0.00016589598, cumulative = -0.0078823081
smoothSolver:  Solving for omega, Initial residual = 0.0075180581, Final residual = 0.00065797664, No Iterations 11
smoothSolver:  Solving for k, Initial residual = 0.0033100246, Final residual = 0.0002587039, No Iterations 9
ExecutionTime = 8.38 s  ClockTime = 8 s

Time = 50

rotorDisk output:
    min/max(AOA)   = -71.648331, -8.4930694
    Effective drag = -177.79302
    Effective lift = 1479.4129
smoothSolver:  Solving for Ux, Initial residual = 0.017490847, Final residual = 0.0015848903, No Iterations 8
smoothSolver:  Solving for Uy, Initial residual = 0.0052037622, Final residual = 0.00044360922, No Iterations 9
smoothSolver:  Solving for Uz, Initial residual = 0.017581395, Final residual = 0.0015834595, No Iterations 8
GAMG:  Solving for p, Initial residual = 0.0096429096, Final residual = 0.00088903287, No Iterations 3
time step continuity errors : sum local = 0.0020987133, global = -0.00015537203, cumulative = -0.0080376801
smoothSolver:  Solving for omega, Initial residual = 0.0072289722, Final residual = 0.00065076867, No Iterations 11
smoothSolver:  Solving for k, Initial residual = 0.0031391106, Final residual = 0.00024872418, No Iterations 9
ExecutionTime = 8.7 s  ClockTime = 9 s

Time = 51

rotorDisk output:
    min/max(AOA)   = -71.520916, -8.4801447
    Effective drag = -176.87999
    Effective lift = 1475.1942
smoothSolver:  Solving for Ux, Initial residual = 0.016741734, Final residual = 0.0015452383, No Iterations 8
smoothSolver:  Solving for Uy, Initial residual = 0.0050906429, Final residual = 0.0004455215, No Iterations 9
smoothSolver:  Solving for Uz, Initial residual = 0.016835947, Final residual = 0.0015432138, No Iterations 8
GAMG:  Solving for p, Initial residual = 0.0093854223, Final residual = 0.00085320287, No Iterations 3
time step continuity errors : sum local = 0.0019981268, global = -0.00014506991, cumulative = -0.00818275
smoothSolver:  Solving for omega, Initial residual = 0.0068810681, Final residual = 0.00064440033, No Iterations 11
smoothSolver:  Solving for k, Initial residual = 0.0029837396, Final residual = 0.00023996913, No Iterations 9
ExecutionTime = 8.86 s  ClockTime = 9 s

Time = 52

rotorDisk output:
    min/max(AOA)   = -71.391725, -8.4665989
    Effective drag = -175.96735
    Effective lift = 1470.9489
smoothSolver:  Solving for Ux, Initial residual = 0.016112186, Final residual = 0.0015094441, No Iterations 8
smoothSolver:  Solving for Uy, Initial residual = 0.004982382, Final residual = 0.00044777675, No Iterations 9
smoothSolver:  Solving for Uz, Initial residual = 0.01620259, Final residual = 0.0015067641, No Iterations 8
GAMG:  Solving for p, Initial residual = 0.0091579541, Final residual = 0.00082247187, No Iterations 3
time step continuity errors : sum local = 0.0019106977, global = -0.00013198576, cumulative = -0.0083147358
smoothSolver:  Solving for omega, Initial residual = 0.0066655663, Final residual = 0.00063983696, No Iterations 11
smoothSolver:  Solving for k, Initial residual = 0.0028468385, Final residual = 0.00023255134, No Iterations 9
ExecutionTime = 9.05 s  ClockTime = 9 s

Time = 53

rotorDisk output:
    min/max(AOA)   = -71.260862, -8.4524689
    Effective drag = -175.05774
    Effective lift = 1466.6843
smoothSolver:  Solving for Ux, Initial residual = 0.015575189, Final residual = 0.0014765425, No Iterations 8
smoothSolver:  Solving for Uy, Initial residual = 0.0048803252, Final residual = 0.00045070404, No Iterations 9
smoothSolver:  Solving for Uz, Initial residual = 0.015655552, Final residual = 0.001473305, No Iterations 8
GAMG:  Solving for p, Initial residual = 0.0089624337, Final residual = 0.00079578026, No Iterations 3
time step continuity errors : sum local = 0.0018330392, global = -0.00012078002, cumulative = -0.0084355158
smoothSolver:  Solving for omega, Initial residual = 0.0064459286, Final residual = 0.00063451259, No Iterations 11
smoothSolver:  Solving for k, Initial residual = 0.002728188, Final residual = 0.00022617644, No Iterations 9
ExecutionTime = 9.21 s  ClockTime = 9 s

Time = 54

rotorDisk output:
    min/max(AOA)   = -71.128451, -8.4377904
    Effective drag = -174.15242
    Effective lift = 1462.406
smoothSolver:  Solving for Ux, Initial residual = 0.015115483, Final residual = 0.0014459931, No Iterations 8
smoothSolver:  Solving for Uy, Initial residual = 0.0047837473, Final residual = 0.00045406176, No Iterations 9
smoothSolver:  Solving for Uz, Initial residual = 0.015181786, Final residual = 0.0014424175, No Iterations 8
GAMG:  Solving for p, Initial residual = 0.0087968089, Final residual = 0.00077210911, No Iterations 3
time step continuity errors : sum local = 0.0017632038, global = -0.00011464884, cumulative = -0.0085501646
smoothSolver:  Solving for omega, Initial residual = 0.0062959375, Final residual = 0.00062954438, No Iterations 11
smoothSolver:  Solving for k, Initial residual = 0.0026216885, Final residual = 0.00022081949, No Iterations 9
ExecutionTime = 9.41 s  ClockTime = 9 s

Time = 55

rotorDisk output:
    min/max(AOA)   = -70.994484, -8.4226232
    Effective drag = -173.2515
    Effective lift = 1458.1218
smoothSolver:  Solving for Ux, Initial residual = 0.014730986, Final residual = 0.001417214, No Iterations 8
smoothSolver:  Solving for Uy, Initial residual = 0.0046924765, Final residual = 0.00045768427, No Iterations 9
smoothSolver:  Solving for Uz, Initial residual = 0.014789707, Final residual = 0.0014136393, No Iterations 8
GAMG:  Solving for p, Initial residual = 0.008644921, Final residual = 0.00075307225, No Iterations 3
time step continuity errors : sum local = 0.0017048941, global = -0.00010900662, cumulative = -0.0086591712
smoothSolver:  Solving for omega, Initial residual = 0.0062362131, Final residual = 0.0005228067, No Iterations 12
smoothSolver:  Solving for k, Initial residual = 0.0025319203, Final residual = 0.00021636982, No Iterations 9
ExecutionTime = 9.59 s  ClockTime = 10 s

Time = 56

rotorDisk output:
    min/max(AOA)   = -70.858872, -8.4070309
    Effective drag = -172.34889
    Effective lift = 1453.807
smoothSolver:  Solving for Ux, Initial residual = 0.014396153, Final residual = 0.001389064, No Iterations 8
smoothSolver:  Solving for Uy, Initial residual = 0.004611831, Final residual = 0.00038493886, No Iterations 10
smoothSolver:  Solving for Uz, Initial residual = 0.01445287, Final residual = 0.0013857687, No Iterations 8
GAMG:  Solving for p, Initial residual = 0.0084910092, Final residual = 0.00073622956, No Iterations 3
time step continuity errors : sum local = 0.0016519829, global = -0.00010298114, cumulative = -0.0087621524
smoothSolver:  Solving for omega, Initial residual = 0.0060642104, Final residual = 0.00051673651, No Iterations 12
smoothSolver:  Solving for k, Initial residual = 0.0024553159, Final residual = 0.00021409653, No Iterations 9
ExecutionTime = 9.76 s  ClockTime = 10 s

Time = 57

rotorDisk output:
    min/max(AOA)   = -70.716783, -8.3904468
    Effective drag = -171.40554
    Effective lift = 1449.2681
smoothSolver:  Solving for Ux, Initial residual = 0.014164367, Final residual = 0.0013707788, No Iterations 8
smoothSolver:  Solving for Uy, Initial residual = 0.0045466826, Final residual = 0.0003884363, No Iterations 10
smoothSolver:  Solving for Uz, Initial residual = 0.01421525, Final residual = 0.001367886, No Iterations 8
GAMG:  Solving for p, Initial residual = 0.0083895631, Final residual = 0.0007320278, No Iterations 3
time step continuity errors : sum local = 0.0016270421, global = -9.5481684e-05, cumulative = -0.0088576341
smoothSolver:  Solving for omega, Initial residual = 0.0059629168, Final residual = 0.00051289, No Iterations 12
smoothSolver:  Solving for k, Initial residual = 0.0023841467, Final residual = 0.00021302168, No Iterations 9
ExecutionTime = 9.94 s  ClockTime = 10 s

Time = 58

rotorDisk output:
    min/max(AOA)   = -70.572538, -8.3735276
    Effective drag = -170.45702
    Effective lift = 1444.6963
smoothSolver:  Solving for Ux, Initial residual = 0.013959895, Final residual = 0.0013508796, No Iterations 8
smoothSolver:  Solving for Uy, Initial residual = 0.0044835082, Final residual = 0.00039181692, No Iterations 10
smoothSolver:  Solving for Uz, Initial residual = 0.014013199, Final residual = 0.0013485525, No Iterations 8
GAMG:  Solving for p, Initial residual = 0.0082949984, Final residual = 0.00073242928, No Iterations 3
time step continuity errors : sum local = 0.0016125076, global = -8.8479312e-05, cumulative = -0.0089461134
smoothSolver:  Solving for omega, Initial residual = 0.005853508, Final residual = 0.00050763162, No Iterations 12
smoothSolver:  Solving for k, Initial residual = 0.0023158452, Final residual = 0.00021327868, No Iterations 9
ExecutionTime = 10.11 s  ClockTime = 10 s

Time = 59

rotorDisk output:
    min/max(AOA)   = -70.426697, -8.3563591
    Effective drag = -169.51343
    Effective lift = 1440.137
smoothSolver:  Solving for Ux, Initial residual = 0.013784288, Final residual = 0.0013309376, No Iterations 8
smoothSolver:  Solving for Uy, Initial residual = 0.0044253319, Final residual = 0.00039467474, No Iterations 10
smoothSolver:  Solving for Uz, Initial residual = 0.013838392, Final residual = 0.0013290645, No Iterations 8
GAMG:  Solving for p, Initial residual = 0.0082050726, Final residual = 0.00073453349, No Iterations 3
time step continuity errors : sum local = 0.0016018841, global = -8.2398692e-05, cumulative = -0.0090285121
smoothSolver:  Solving for omega, Initial residual = 0.0057251616, Final residual = 0.00050344626, No Iterations 12
smoothSolver:  Solving for k, Initial residual = 0.0022582784, Final residual = 0.00021480209, No Iterations 9
ExecutionTime = 10.29 s  ClockTime = 10 s

Time = 60

rotorDisk output:
    min/max(AOA)   = -70.279391, -8.3389703
    Effective drag = -168.57564
    Effective lift = 1435.5916
smoothSolver:  Solving for Ux, Initial residual = 0.013620686, Final residual = 0.0013104377, No Iterations 8
smoothSolver:  Solving for Uy, Initial residual = 0.0043721168, Final residual = 0.00039699678, No Iterations 10
smoothSolver:  Solving for Uz, Initial residual = 0.013676046, Final residual = 0.0013090746, No Iterations 8
GAMG:  Solving for p, Initial residual = 0.0081206277, Final residual = 0.00073686918, No Iterations 3
time step continuity errors : sum local = 0.0015918953, global = -7.6714158e-05, cumulative = -0.0091052262
smoothSolver:  Solving for omega, Initial residual = 0.0056730351, Final residual = 0.00050048209, No Iterations 12
smoothSolver:  Solving for k, Initial residual = 0.0022071155, Final residual = 0.00021742864, No Iterations 9
ExecutionTime = 10.45 s  ClockTime = 10 s

Time = 61

rotorDisk output:
    min/max(AOA)   = -70.130684, -8.3214075
    Effective drag = -167.6403
    Effective lift = 1431.0499
smoothSolver:  Solving for Ux, Initial residual = 0.013442545, Final residual = 0.0012893042, No Iterations 8
smoothSolver:  Solving for Uy, Initial residual = 0.0043245755, Final residual = 0.00039902468, No Iterations 10
smoothSolver:  Solving for Uz, Initial residual = 0.013503481, Final residual = 0.001288314, No Iterations 8
GAMG:  Solving for p, Initial residual = 0.0080297535, Final residual = 0.00073896815, No Iterations 3
time step continuity errors : sum local = 0.001581528, global = -7.1152503e-05, cumulative = -0.0091763787
smoothSolver:  Solving for omega, Initial residual = 0.0056006412, Final residual = 0.00049486622, No Iterations 12
smoothSolver:  Solving for k, Initial residual = 0.0021564945, Final residual = 0.00017718506, No Iterations 10
ExecutionTime = 10.62 s  ClockTime = 11 s

Time = 62

rotorDisk output:
    min/max(AOA)   = -69.980668, -8.3037121
    Effective drag = -166.70757
    Effective lift = 1426.5019
smoothSolver:  Solving for Ux, Initial residual = 0.013270989, Final residual = 0.0012694644, No Iterations 8
smoothSolver:  Solving for Uy, Initial residual = 0.0042783745, Final residual = 0.00040048743, No Iterations 10
smoothSolver:  Solving for Uz, Initial residual = 0.013335073, Final residual = 0.0012688599, No Iterations 8
GAMG:  Solving for p, Initial residual = 0.0079450134, Final residual = 0.00073949411, No Iterations 3
time step continuity errors : sum local = 0.0015680811, global = -7.0894376e-05, cumulative = -0.0092472731
smoothSolver:  Solving for omega, Initial residual = 0.0055488515, Final residual = 0.00049013747, No Iterations 12
smoothSolver:  Solving for k, Initial residual = 0.0021039519, Final residual = 0.00018229141, No Iterations 10
ExecutionTime = 10.79 s  ClockTime = 11 s

Time = 63

rotorDisk output:
    min/max(AOA)   = -69.829496, -8.2859181
    Effective drag = -165.77993
    Effective lift = 1421.9613
smoothSolver:  Solving for Ux, Initial residual = 0.013083611, Final residual = 0.0012485903, No Iterations 8
smoothSolver:  Solving for Uy, Initial residual = 0.0042318504, Final residual = 0.00040138907, No Iterations 10
smoothSolver:  Solving for Uz, Initial residual = 0.013150998, Final residual = 0.0012483999, No Iterations 8
GAMG:  Solving for p, Initial residual = 0.007849963, Final residual = 0.00073903674, No Iterations 3
time step continuity errors : sum local = 0.0015531356, global = -6.879769e-05, cumulative = -0.0093160708
smoothSolver:  Solving for omega, Initial residual = 0.0054963797, Final residual = 0.00048525609, No Iterations 12
smoothSolver:  Solving for k, Initial residual = 0.0020611896, Final residual = 0.00018887359, No Iterations 10
ExecutionTime = 10.97 s  ClockTime = 11 s

Time = 64

rotorDisk output:
    min/max(AOA)   = -69.677201, -8.2680647
    Effective drag = -164.85405
    Effective lift = 1417.4275
smoothSolver:  Solving for Ux, Initial residual = 0.012901735, Final residual = 0.0012276387, No Iterations 8
smoothSolver:  Solving for Uy, Initial residual = 0.0041891514, Final residual = 0.00040191353, No Iterations 10
smoothSolver:  Solving for Uz, Initial residual = 0.012971662, Final residual = 0.0012278501, No Iterations 8
GAMG:  Solving for p, Initial residual = 0.0077573248, Final residual = 0.00073787912, No Iterations 3
time step continuity errors : sum local = 0.0015369649, global = -6.5746907e-05, cumulative = -0.0093818177
smoothSolver:  Solving for omega, Initial residual = 0.0054378458, Final residual = 0.0004799144, No Iterations 12
smoothSolver:  Solving for k, Initial residual = 0.0020239687, Final residual = 0.00019649068, No Iterations 10
ExecutionTime = 11.16 s  ClockTime = 11 s

Time = 65

rotorDisk output:
    min/max(AOA)   = -69.523896, -8.2501576
    Effective drag = -163.9354
    Effective lift = 1412.9237
smoothSolver:  Solving for Ux, Initial residual = 0.012712729, Final residual = 0.0012069107, No Iterations 8
smoothSolver:  Solving for Uy, Initial residual = 0.004146392, Final residual = 0.00040202495, No Iterations 10
smoothSolver:  Solving for Uz, Initial residual = 0.01278598, Final residual = 0.0012075366, No Iterations 8
GAMG:  Solving for p, Initial residual = 0.0076655977, Final residual = 0.00073607523, No Iterations 3
time step continuity errors : sum local = 0.0015197811, global = -6.1708024e-05, cumulative = -0.0094435257
smoothSolver:  Solving for omega, Initial residual = 0.0054062411, Final residual = 0.00047544775, No Iterations 12
smoothSolver:  Solving for k, Initial residual = 0.0019951358, Final residual = 0.00016762673, No Iterations 11
ExecutionTime = 11.35 s  ClockTime = 11 s

Time = 66

rotorDisk output:
    min/max(AOA)   = -69.369724, -8.2322323
    Effective drag = -163.02466
    Effective lift = 1408.4513
smoothSolver:  Solving for Ux, Initial residual = 0.012523342, Final residual = 0.0011867217, No Iterations 8
smoothSolver:  Solving for Uy, Initial residual = 0.0041010189, Final residual = 0.00040170502, No Iterations 10
smoothSolver:  Solving for Uz, Initial residual = 0.012599477, Final residual = 0.0011877375, No Iterations 8
GAMG:  Solving for p, Initial residual = 0.0075732869, Final residual = 0.00073353431, No Iterations 3
time step continuity errors : sum local = 0.0015016926, global = -5.6692791e-05, cumulative = -0.0095002185
smoothSolver:  Solving for omega, Initial residual = 0.0053395773, Final residual = 0.00046987418, No Iterations 12
smoothSolver:  Solving for k, Initial residual = 0.0019690773, Final residual = 0.00017384662, No Iterations 11
ExecutionTime = 11.53 s  ClockTime = 11 s

Time = 67

rotorDisk output:
    min/max(AOA)   = -69.214835, -8.2143193
    Effective drag = -162.12338
    Effective lift = 1404.0099
smoothSolver:  Solving for Ux, Initial residual = 0.012342218, Final residual = 0.0011666794, No Iterations 8
smoothSolver:  Solving for Uy, Initial residual = 0.0040537934, Final residual = 0.00040103696, No Iterations 10
smoothSolver:  Solving for Uz, Initial residual = 0.012419696, Final residual = 0.0011680684, No Iterations 8
GAMG:  Solving for p, Initial residual = 0.0074819711, Final residual = 0.00073053722, No Iterations 3
time step continuity errors : sum local = 0.0014833091, global = -5.0929794e-05, cumulative = -0.0095511483
smoothSolver:  Solving for omega, Initial residual = 0.0052610672, Final residual = 0.00046334221, No Iterations 12
smoothSolver:  Solving for k, Initial residual = 0.0019518529, Final residual = 0.00018016929, No Iterations 11
ExecutionTime = 11.71 s  ClockTime = 12 s

Time = 68

rotorDisk output:
    min/max(AOA)   = -69.059399, -8.1964586
    Effective drag = -161.23686
    Effective lift = 1399.6134
smoothSolver:  Solving for Ux, Initial residual = 0.012163509, Final residual = 0.0011469146, No Iterations 8
smoothSolver:  Solving for Uy, Initial residual = 0.0040035496, Final residual = 0.0003999025, No Iterations 10
smoothSolver:  Solving for Uz, Initial residual = 0.012241626, Final residual = 0.0011486726, No Iterations 8
GAMG:  Solving for p, Initial residual = 0.0073921241, Final residual = 0.00072262536, No Iterations 3
time step continuity errors : sum local = 0.0014555792, global = -5.3224514e-05, cumulative = -0.0096043728
smoothSolver:  Solving for omega, Initial residual = 0.00522341, Final residual = 0.00045816204, No Iterations 12
smoothSolver:  Solving for k, Initial residual = 0.001941546, Final residual = 0.00018635476, No Iterations 11
ExecutionTime = 11.89 s  ClockTime = 12 s

Time = 69

rotorDisk output:
    min/max(AOA)   = -68.903659, -8.1786836
    Effective drag = -160.36733
    Effective lift = 1395.2695
smoothSolver:  Solving for Ux, Initial residual = 0.011979886, Final residual = 0.0011267138, No Iterations 8
smoothSolver:  Solving for Uy, Initial residual = 0.0039482751, Final residual = 0.00033391032, No Iterations 11
smoothSolver:  Solving for Uz, Initial residual = 0.012057935, Final residual = 0.0011287034, No Iterations 8
GAMG:  Solving for p, Initial residual = 0.0072710989, Final residual = 0.00071465449, No Iterations 3
time step continuity errors : sum local = 0.0014286454, global = -4.9209845e-05, cumulative = -0.0096535827
smoothSolver:  Solving for omega, Initial residual = 0.0051536376, Final residual = 0.00045243487, No Iterations 12
smoothSolver:  Solving for k, Initial residual = 0.0019473136, Final residual = 0.00019321265, No Iterations 11
ExecutionTime = 12.06 s  ClockTime = 12 s

Time = 70

rotorDisk output:
    min/max(AOA)   = -68.743133, -8.1604184
    Effective drag = -159.48975
    Effective lift = 1390.8545
smoothSolver:  Solving for Ux, Initial residual = 0.011833739, Final residual = 0.0011124531, No Iterations 8
smoothSolver:  Solving for Uy, Initial residual = 0.003902534, Final residual = 0.00033220835, No Iterations 11
smoothSolver:  Solving for Uz, Initial residual = 0.011907945, Final residual = 0.0011146211, No Iterations 8
GAMG:  Solving for p, Initial residual = 0.0071876011, Final residual = 0.00071216606, No Iterations 3
time step continuity errors : sum local = 0.001412627, global = -4.3081398e-05, cumulative = -0.0096966641
smoothSolver:  Solving for omega, Initial residual = 0.0051300213, Final residual = 0.0004474848, No Iterations 12
smoothSolver:  Solving for k, Initial residual = 0.0019572533, Final residual = 0.00016564693, No Iterations 12
ExecutionTime = 12.24 s  ClockTime = 12 s

Time = 71

rotorDisk output:
    min/max(AOA)   = -68.581802, -8.1423168
    Effective drag = -158.62437
    Effective lift = 1386.4918
smoothSolver:  Solving for Ux, Initial residual = 0.011679471, Final residual = 0.0010964868, No Iterations 8
smoothSolver:  Solving for Uy, Initial residual = 0.0038498233, Final residual = 0.00033010178, No Iterations 11
smoothSolver:  Solving for Uz, Initial residual = 0.011751253, Final residual = 0.0010988297, No Iterations 8
GAMG:  Solving for p, Initial residual = 0.0071049613, Final residual = 0.00070994995, No Iterations 3
time step continuity errors : sum local = 0.0013976836, global = -3.693462e-05, cumulative = -0.0097335987
smoothSolver:  Solving for omega, Initial residual = 0.0051539438, Final residual = 0.00044273116, No Iterations 12
smoothSolver:  Solving for k, Initial residual = 0.0019633507, Final residual = 0.00017076746, No Iterations 12
ExecutionTime = 12.41 s  ClockTime = 12 s

Time = 72

rotorDisk output:
    min/max(AOA)   = -68.420383, -8.1243993
    Effective drag = -157.77359
    Effective lift = 1382.193
smoothSolver:  Solving for Ux, Initial residual = 0.011522276, Final residual = 0.0010785763, No Iterations 8
smoothSolver:  Solving for Uy, Initial residual = 0.0037958994, Final residual = 0.00032767257, No Iterations 11
smoothSolver:  Solving for Uz, Initial residual = 0.011591474, Final residual = 0.0010810074, No Iterations 8
GAMG:  Solving for p, Initial residual = 0.0070159706, Final residual = 0.00040213102, No Iterations 4
time step continuity errors : sum local = 0.0007859208, global = -1.6066682e-05, cumulative = -0.0097496654
smoothSolver:  Solving for omega, Initial residual = 0.0050885046, Final residual = 0.0004369828, No Iterations 12
smoothSolver:  Solving for k, Initial residual = 0.0019728284, Final residual = 0.00017598316, No Iterations 12
ExecutionTime = 12.57 s  ClockTime = 13 s

Time = 73

rotorDisk output:
    min/max(AOA)   = -68.25976, -8.1067045
    Effective drag = -156.94411
    Effective lift = 1377.973
smoothSolver:  Solving for Ux, Initial residual = 0.011489736, Final residual = 0.0010570565, No Iterations 8
smoothSolver:  Solving for Uy, Initial residual = 0.003859778, Final residual = 0.0003259897, No Iterations 11
smoothSolver:  Solving for Uz, Initial residual = 0.011580759, Final residual = 0.0010619797, No Iterations 8
GAMG:  Solving for p, Initial residual = 0.006822047, Final residual = 0.00067668093, No Iterations 3
time step continuity errors : sum local = 0.0013126012, global = -2.24185e-05, cumulative = -0.0097720839
smoothSolver:  Solving for omega, Initial residual = 0.0050310122, Final residual = 0.00043123437, No Iterations 12
smoothSolver:  Solving for k, Initial residual = 0.0019849362, Final residual = 0.00018072195, No Iterations 12
ExecutionTime = 12.74 s  ClockTime = 28 s

Time = 74

rotorDisk output:
    min/max(AOA)   = -68.098994, -8.0892148
    Effective drag = -156.12478
    Effective lift = 1373.7858
smoothSolver:  Solving for Ux, Initial residual = 0.011046595, Final residual = 0.0010363137, No Iterations 8
smoothSolver:  Solving for Uy, Initial residual = 0.0036528952, Final residual = 0.00032168793, No Iterations 11
smoothSolver:  Solving for Uz, Initial residual = 0.01110257, Final residual = 0.0010378472, No Iterations 8
GAMG:  Solving for p, Initial residual = 0.0067571708, Final residual = 0.00038680222, No Iterations 4
time step continuity errors : sum local = 0.00074569808, global = -1.6118123e-05, cumulative = -0.009788202
smoothSolver:  Solving for omega, Initial residual = 0.0049839859, Final residual = 0.00042386556, No Iterations 12
smoothSolver:  Solving for k, Initial residual = 0.0019973233, Final residual = 0.00018501587, No Iterations 12
ExecutionTime = 12.94 s  ClockTime = 13 s

Time = 75

rotorDisk output:
    min/max(AOA)   = -67.939753, -8.0719711
    Effective drag = -155.32099
    Effective lift = 1369.6796
smoothSolver:  Solving for Ux, Initial residual = 0.011072398, Final residual = 0.0010182983, No Iterations 8
smoothSolver:  Solving for Uy, Initial residual = 0.0037077052, Final residual = 0.00031914512, No Iterations 11
smoothSolver:  Solving for Uz, Initial residual = 0.011137103, Final residual = 0.001022083, No Iterations 8
GAMG:  Solving for p, Initial residual = 0.0065594718, Final residual = 0.00064426025, No Iterations 3
time step continuity errors : sum local = 0.001233331, global = -2.182116e-05, cumulative = -0.0098100231
smoothSolver:  Solving for omega, Initial residual = 0.0049665247, Final residual = 0.00041867486, No Iterations 12
smoothSolver:  Solving for k, Initial residual = 0.0020135109, Final residual = 0.00018893919, No Iterations 12
ExecutionTime = 13.12 s  ClockTime = 13 s

Time = 76

rotorDisk output:
    min/max(AOA)   = -67.780714, -8.0549464
    Effective drag = -154.52835
    Effective lift = 1365.6267
smoothSolver:  Solving for Ux, Initial residual = 0.010651723, Final residual = 0.00099816968, No Iterations 8
smoothSolver:  Solving for Uy, Initial residual = 0.0035153254, Final residual = 0.0003147897, No Iterations 11
smoothSolver:  Solving for Uz, Initial residual = 0.010688683, Final residual = 0.00099903484, No Iterations 8
GAMG:  Solving for p, Initial residual = 0.0064958231, Final residual = 0.00037098717, No Iterations 4
time step continuity errors : sum local = 0.00070602541, global = -9.1527496e-06, cumulative = -0.0098191759
smoothSolver:  Solving for omega, Initial residual = 0.0048690642, Final residual = 0.0004119213, No Iterations 12
smoothSolver:  Solving for k, Initial residual = 0.0020236204, Final residual = 0.00019236112, No Iterations 12
ExecutionTime = 13.31 s  ClockTime = 13 s

Time = 77

rotorDisk output:
    min/max(AOA)   = -67.623604, -8.0381834
    Effective drag = -153.75782
    Effective lift = 1361.6713
smoothSolver:  Solving for Ux, Initial residual = 0.01067438, Final residual = 0.00097933993, No Iterations 8
smoothSolver:  Solving for Uy, Initial residual = 0.0035671267, Final residual = 0.00031197901, No Iterations 11
smoothSolver:  Solving for Uz, Initial residual = 0.010724084, Final residual = 0.00098285271, No Iterations 8
GAMG:  Solving for p, Initial residual = 0.0063061325, Final residual = 0.00061795462, No Iterations 3
time step continuity errors : sum local = 0.0011681051, global = -1.3324686e-05, cumulative = -0.0098325006
smoothSolver:  Solving for omega, Initial residual = 0.0048011679, Final residual = 0.00040537246, No Iterations 12
smoothSolver:  Solving for k, Initial residual = 0.0020342311, Final residual = 0.00019553797, No Iterations 12
ExecutionTime = 13.49 s  ClockTime = 13 s

Time = 78

rotorDisk output:
    min/max(AOA)   = -67.467764, -8.0216627
    Effective drag = -153.00182
    Effective lift = 1357.7723
smoothSolver:  Solving for Ux, Initial residual = 0.010268002, Final residual = 0.00095901088, No Iterations 8
smoothSolver:  Solving for Uy, Initial residual = 0.0033805004, Final residual = 0.00030744092, No Iterations 11
smoothSolver:  Solving for Uz, Initial residual = 0.010292289, Final residual = 0.00095990778, No Iterations 8
GAMG:  Solving for p, Initial residual = 0.0062578926, Final residual = 0.00035874895, No Iterations 4
time step continuity errors : sum local = 0.000674314, global = 1.0840917e-06, cumulative = -0.0098314165
smoothSolver:  Solving for omega, Initial residual = 0.0047469635, Final residual = 0.00039823501, No Iterations 12
smoothSolver:  Solving for k, Initial residual = 0.0020454392, Final residual = 0.0001984641, No Iterations 12
ExecutionTime = 13.67 s  ClockTime = 14 s

Time = 79

rotorDisk output:
    min/max(AOA)   = -67.314301, -8.0054187
    Effective drag = -152.26826
    Effective lift = 1353.985
smoothSolver:  Solving for Ux, Initial residual = 0.010292494, Final residual = 0.0009399464, No Iterations 8
smoothSolver:  Solving for Uy, Initial residual = 0.0034304385, Final residual = 0.00030414148, No Iterations 11
smoothSolver:  Solving for Uz, Initial residual = 0.010332208, Final residual = 0.00094351875, No Iterations 8
GAMG:  Solving for p, Initial residual = 0.0060886157, Final residual = 0.00059843428, No Iterations 3
time step continuity errors : sum local = 0.0011177255, global = -3.0280942e-06, cumulative = -0.0098344446
smoothSolver:  Solving for omega, Initial residual = 0.0046972706, Final residual = 0.00039167353, No Iterations 12
smoothSolver:  Solving for k, Initial residual = 0.0020606831, Final residual = 0.0002011301, No Iterations 12
ExecutionTime = 13.84 s  ClockTime = 14 s

Time = 80

rotorDisk output:
    min/max(AOA)   = -67.161547, -7.9894366
    Effective drag = -151.54749
    Effective lift = 1350.2548
smoothSolver:  Solving for Ux, Initial residual = 0.0099117698, Final residual = 0.00091937499, No Iterations 8
smoothSolver:  Solving for Uy, Initial residual = 0.0032554384, Final residual = 0.00029922258, No Iterations 11
smoothSolver:  Solving for Uz, Initial residual = 0.0099292142, Final residual = 0.00092047967, No Iterations 8
GAMG:  Solving for p, Initial residual = 0.0060499094, Final residual = 0.00034821639, No Iterations 4
time step continuity errors : sum local = 0.00064697682, global = 1.0583685e-05, cumulative = -0.0098238609
smoothSolver:  Solving for omega, Initial residual = 0.0045884793, Final residual = 0.00038443349, No Iterations 12
smoothSolver:  Solving for k, Initial residual = 0.0020708021, Final residual = 0.00020349255, No Iterations 12
ExecutionTime = 14.02 s  ClockTime = 14 s

Time = 81

rotorDisk output:
    min/max(AOA)   = -67.011186, -7.9737506
    Effective drag = -150.84579
    Effective lift = 1346.6161
smoothSolver:  Solving for Ux, Initial residual = 0.0099279963, Final residual = 0.00089941087, No Iterations 8
smoothSolver:  Solving for Uy, Initial residual = 0.0033054316, Final residual = 0.00029542347, No Iterations 11
smoothSolver:  Solving for Uz, Initial residual = 0.0099634817, Final residual = 0.00090322049, No Iterations 8
GAMG:  Solving for p, Initial residual = 0.0058891483, Final residual = 0.00058119058, No Iterations 3
time step continuity errors : sum local = 0.0010735417, global = 5.9549227e-06, cumulative = -0.009817906
smoothSolver:  Solving for omega, Initial residual = 0.0044961064, Final residual = 0.00037725506, No Iterations 12
smoothSolver:  Solving for k, Initial residual = 0.002080068, Final residual = 0.00020554786, No Iterations 12
ExecutionTime = 14.19 s  ClockTime = 14 s

Time = 82

rotorDisk output:
    min/max(AOA)   = -66.861486, -7.9583536
    Effective drag = -150.15888
    Effective lift = 1343.0391
smoothSolver:  Solving for Ux, Initial residual = 0.0095482545, Final residual = 0.00087852218, No Iterations 8
smoothSolver:  Solving for Uy, Initial residual = 0.0031383434, Final residual = 0.00029013407, No Iterations 11
smoothSolver:  Solving for Uz, Initial residual = 0.0095622629, Final residual = 0.00087990387, No Iterations 8
GAMG:  Solving for p, Initial residual = 0.0058560189, Final residual = 0.00033719404, No Iterations 4
time step continuity errors : sum local = 0.00061983776, global = 1.8084521e-05, cumulative = -0.0097998215
smoothSolver:  Solving for omega, Initial residual = 0.0044352391, Final residual = 0.00036988151, No Iterations 12
smoothSolver:  Solving for k, Initial residual = 0.0020883051, Final residual = 0.00020739942, No Iterations 12
ExecutionTime = 14.39 s  ClockTime = 14 s

Time = 83

rotorDisk output:
    min/max(AOA)   = -66.714368, -7.9432748
    Effective drag = -149.49313
    Effective lift = 1339.5682
smoothSolver:  Solving for Ux, Initial residual = 0.0095614704, Final residual = 0.00085836067, No Iterations 8
[...]
smoothSolver:  Solving for Uy, Initial residual = 5.7950711e-05, Final residual = 5.0250338e-06, No Iterations 10
smoothSolver:  Solving for Uz, Initial residual = 0.00019566532, Final residual = 1.7085839e-05, No Iterations 6
GAMG:  Solving for p, Initial residual = 0.00013595241, Final residual = 8.8346813e-06, No Iterations 3
time step continuity errors : sum local = 1.4166276e-05, global = 6.7388984e-07, cumulative = -0.0084267448
smoothSolver:  Solving for omega, Initial residual = 8.7826163e-05, Final residual = 8.0903221e-06, No Iterations 12
smoothSolver:  Solving for k, Initial residual = 6.6107759e-05, Final residual = 6.3887367e-06, No Iterations 13
ExecutionTime = 35.93 s  ClockTime = 36 s

Time = 206

rotorDisk output:
    min/max(AOA)   = -61.44432, -7.4771878
    Effective drag = -130.60883
    Effective lift = 1235.6514
smoothSolver:  Solving for Ux, Initial residual = 0.00018522752, Final residual = 1.6393684e-05, No Iterations 6
smoothSolver:  Solving for Uy, Initial residual = 5.5858009e-05, Final residual = 4.849341e-06, No Iterations 10
smoothSolver:  Solving for Uz, Initial residual = 0.00018867542, Final residual = 1.6471871e-05, No Iterations 6
GAMG:  Solving for p, Initial residual = 0.00013099312, Final residual = 8.5202979e-06, No Iterations 3
time step continuity errors : sum local = 1.3661384e-05, global = 6.3057626e-07, cumulative = -0.0084261142
smoothSolver:  Solving for omega, Initial residual = 8.4656548e-05, Final residual = 7.8095422e-06, No Iterations 12
smoothSolver:  Solving for k, Initial residual = 6.3655483e-05, Final residual = 6.1538086e-06, No Iterations 13
ExecutionTime = 36.1 s  ClockTime = 36 s

Time = 207

rotorDisk output:
    min/max(AOA)   = -61.44201, -7.4770108
    Effective drag = -130.60235
    Effective lift = 1235.6137
smoothSolver:  Solving for Ux, Initial residual = 0.00017861114, Final residual = 1.5814172e-05, No Iterations 6
smoothSolver:  Solving for Uy, Initial residual = 5.384641e-05, Final residual = 4.680757e-06, No Iterations 10
smoothSolver:  Solving for Uz, Initial residual = 0.00018193965, Final residual = 1.5888672e-05, No Iterations 6
GAMG:  Solving for p, Initial residual = 0.00012623489, Final residual = 8.2974376e-06, No Iterations 3
time step continuity errors : sum local = 1.3303299e-05, global = 6.8069178e-07, cumulative = -0.0084254335
smoothSolver:  Solving for omega, Initial residual = 8.1608749e-05, Final residual = 7.5385709e-06, No Iterations 12
smoothSolver:  Solving for k, Initial residual = 6.12978e-05, Final residual = 5.9276463e-06, No Iterations 13
ExecutionTime = 36.28 s  ClockTime = 36 s

Time = 208

rotorDisk output:
    min/max(AOA)   = -61.439779, -7.4768399
    Effective drag = -130.59609
    Effective lift = 1235.5773
smoothSolver:  Solving for Ux, Initial residual = 0.00017228146, Final residual = 1.5260331e-05, No Iterations 6
smoothSolver:  Solving for Uy, Initial residual = 5.193385e-05, Final residual = 4.5216607e-06, No Iterations 10
smoothSolver:  Solving for Uz, Initial residual = 0.0001755018, Final residual = 1.5331544e-05, No Iterations 6
GAMG:  Solving for p, Initial residual = 0.00012168445, Final residual = 7.9119299e-06, No Iterations 3
time step continuity errors : sum local = 1.2684473e-05, global = 5.9749865e-07, cumulative = -0.008424836
smoothSolver:  Solving for omega, Initial residual = 7.8707915e-05, Final residual = 7.2788538e-06, No Iterations 12
smoothSolver:  Solving for k, Initial residual = 5.9035546e-05, Final residual = 5.7103885e-06, No Iterations 13
ExecutionTime = 36.45 s  ClockTime = 37 s

Time = 209

rotorDisk output:
    min/max(AOA)   = -61.437623, -7.4766747
    Effective drag = -130.59004
    Effective lift = 1235.542
smoothSolver:  Solving for Ux, Initial residual = 0.00016618802, Final residual = 1.4722903e-05, No Iterations 6
smoothSolver:  Solving for Uy, Initial residual = 5.0084027e-05, Final residual = 4.3668444e-06, No Iterations 10
smoothSolver:  Solving for Uz, Initial residual = 0.00016929982, Final residual = 1.4793344e-05, No Iterations 6
GAMG:  Solving for p, Initial residual = 0.0001172812, Final residual = 7.6366429e-06, No Iterations 3
time step continuity errors : sum local = 1.2242483e-05, global = 5.5833002e-07, cumulative = -0.0084242777
smoothSolver:  Solving for omega, Initial residual = 7.5909374e-05, Final residual = 7.027812e-06, No Iterations 12
smoothSolver:  Solving for k, Initial residual = 5.6864298e-05, Final residual = 5.5015608e-06, No Iterations 13
ExecutionTime = 36.62 s  ClockTime = 37 s

Time = 210

rotorDisk output:
    min/max(AOA)   = -61.435539, -7.4765151
    Effective drag = -130.58418
    Effective lift = 1235.508
smoothSolver:  Solving for Ux, Initial residual = 0.00016031874, Final residual = 1.4213971e-05, No Iterations 6
smoothSolver:  Solving for Uy, Initial residual = 4.8305579e-05, Final residual = 4.2181802e-06, No Iterations 10
smoothSolver:  Solving for Uz, Initial residual = 0.00016333143, Final residual = 1.4281308e-05, No Iterations 6
GAMG:  Solving for p, Initial residual = 0.00011306323, Final residual = 7.4407419e-06, No Iterations 3
time step continuity errors : sum local = 1.1927808e-05, global = 6.0192617e-07, cumulative = -0.0084236758
smoothSolver:  Solving for omega, Initial residual = 7.3220646e-05, Final residual = 6.7854079e-06, No Iterations 12
smoothSolver:  Solving for k, Initial residual = 5.4776352e-05, Final residual = 5.3005848e-06, No Iterations 13
ExecutionTime = 36.79 s  ClockTime = 37 s

Time = 211

rotorDisk output:
    min/max(AOA)   = -61.433525, -7.4763609
    Effective drag = -130.57852
    Effective lift = 1235.475
smoothSolver:  Solving for Ux, Initial residual = 0.00015470814, Final residual = 1.3726722e-05, No Iterations 6
smoothSolver:  Solving for Uy, Initial residual = 4.6613779e-05, Final residual = 4.0777183e-06, No Iterations 10
smoothSolver:  Solving for Uz, Initial residual = 0.0001576216, Final residual = 1.3791201e-05, No Iterations 6
GAMG:  Solving for p, Initial residual = 0.00010902983, Final residual = 7.102211e-06, No Iterations 3
time step continuity errors : sum local = 1.1384519e-05, global = 5.2979617e-07, cumulative = -0.008423146
smoothSolver:  Solving for omega, Initial residual = 7.065843e-05, Final residual = 6.5525537e-06, No Iterations 12
smoothSolver:  Solving for k, Initial residual = 5.2772742e-05, Final residual = 5.1075674e-06, No Iterations 13
ExecutionTime = 36.96 s  ClockTime = 37 s

Time = 212

rotorDisk output:
    min/max(AOA)   = -61.431578, -7.4762118
    Effective drag = -130.57305
    Effective lift = 1235.4431
smoothSolver:  Solving for Ux, Initial residual = 0.00014930245, Final residual = 1.3253103e-05, No Iterations 6
smoothSolver:  Solving for Uy, Initial residual = 4.4978125e-05, Final residual = 3.940896e-06, No Iterations 10
smoothSolver:  Solving for Uz, Initial residual = 0.00015211579, Final residual = 1.3316824e-05, No Iterations 6
GAMG:  Solving for p, Initial residual = 0.00010512641, Final residual = 6.9217747e-06, No Iterations 3
time step continuity errors : sum local = 1.1094749e-05, global = 5.7413226e-07, cumulative = -0.0084225719
smoothSolver:  Solving for omega, Initial residual = 6.8174283e-05, Final residual = 6.3269542e-06, No Iterations 12
smoothSolver:  Solving for k, Initial residual = 5.0848109e-05, Final residual = 4.9218879e-06, No Iterations 13
ExecutionTime = 37.13 s  ClockTime = 37 s

Time = 213

rotorDisk output:
    min/max(AOA)   = -61.429695, -7.4760677
    Effective drag = -130.56775
    Effective lift = 1235.4123
smoothSolver:  Solving for Ux, Initial residual = 0.00014409992, Final residual = 1.2804638e-05, No Iterations 6
smoothSolver:  Solving for Uy, Initial residual = 4.3412473e-05, Final residual = 3.8110875e-06, No Iterations 10
smoothSolver:  Solving for Uz, Initial residual = 0.00014682348, Final residual = 1.2865314e-05, No Iterations 6
GAMG:  Solving for p, Initial residual = 0.00010140144, Final residual = 6.6085179e-06, No Iterations 3
time step continuity errors : sum local = 1.0592106e-05, global = 5.0217363e-07, cumulative = -0.0084220697
smoothSolver:  Solving for omega, Initial residual = 6.5805833e-05, Final residual = 6.1105915e-06, No Iterations 12
smoothSolver:  Solving for k, Initial residual = 4.9001277e-05, Final residual = 4.7435828e-06, No Iterations 13
ExecutionTime = 37.3 s  ClockTime = 38 s

Time = 214

rotorDisk output:
    min/max(AOA)   = -61.427873, -7.4759283
    Effective drag = -130.56262
    Effective lift = 1235.3824
smoothSolver:  Solving for Ux, Initial residual = 0.00013910794, Final residual = 1.2368697e-05, No Iterations 6
smoothSolver:  Solving for Uy, Initial residual = 4.1904083e-05, Final residual = 3.6844495e-06, No Iterations 10
smoothSolver:  Solving for Uz, Initial residual = 0.00014173432, Final residual = 1.2428368e-05, No Iterations 6
GAMG:  Solving for p, Initial residual = 9.7794595e-05, Final residual = 6.3877542e-06, No Iterations 3
time step continuity errors : sum local = 1.0237802e-05, global = 4.6730989e-07, cumulative = -0.0084216024
smoothSolver:  Solving for omega, Initial residual = 6.351668e-05, Final residual = 5.9014848e-06, No Iterations 12
smoothSolver:  Solving for k, Initial residual = 4.7228814e-05, Final residual = 4.5722342e-06, No Iterations 13
ExecutionTime = 37.45 s  ClockTime = 38 s

Time = 215

rotorDisk output:
    min/max(AOA)   = -61.426111, -7.4757934
    Effective drag = -130.55765
    Effective lift = 1235.3535
smoothSolver:  Solving for Ux, Initial residual = 0.00013429195, Final residual = 1.1954873e-05, No Iterations 6
smoothSolver:  Solving for Uy, Initial residual = 4.045005e-05, Final residual = 3.5626603e-06, No Iterations 10
smoothSolver:  Solving for Uz, Initial residual = 0.0001368329, Final residual = 1.2011777e-05, No Iterations 6
GAMG:  Solving for p, Initial residual = 9.4337883e-05, Final residual = 6.2320165e-06, No Iterations 3
time step continuity errors : sum local = 9.9877496e-06, global = 5.0154397e-07, cumulative = -0.0084211008
smoothSolver:  Solving for omega, Initial residual = 6.1314834e-05, Final residual = 5.6997364e-06, No Iterations 12
smoothSolver:  Solving for k, Initial residual = 4.5524044e-05, Final residual = 4.4073384e-06, No Iterations 13
ExecutionTime = 37.62 s  ClockTime = 38 s

Time = 216

rotorDisk output:
    min/max(AOA)   = -61.424406, -7.475663
    Effective drag = -130.55284
    Effective lift = 1235.3255
smoothSolver:  Solving for Ux, Initial residual = 0.00012968208, Final residual = 1.1557503e-05, No Iterations 6
smoothSolver:  Solving for Uy, Initial residual = 3.90659e-05, Final residual = 3.4474373e-06, No Iterations 10
smoothSolver:  Solving for Uz, Initial residual = 0.00013213967, Final residual = 1.161193e-05, No Iterations 6
GAMG:  Solving for p, Initial residual = 9.1030539e-05, Final residual = 5.9574242e-06, No Iterations 3
time step continuity errors : sum local = 9.5472329e-06, global = 4.4075599e-07, cumulative = -0.0084206601
smoothSolver:  Solving for omega, Initial residual = 5.9211905e-05, Final residual = 5.5059158e-06, No Iterations 12
smoothSolver:  Solving for k, Initial residual = 4.3887759e-05, Final residual = 4.2489786e-06, No Iterations 13
ExecutionTime = 37.78 s  ClockTime = 53 s

Time = 217

rotorDisk output:
    min/max(AOA)   = -61.422756, -7.4755367
    Effective drag = -130.54818
    Effective lift = 1235.2984
smoothSolver:  Solving for Ux, Initial residual = 0.00012523665, Final residual = 1.1170213e-05, No Iterations 6
smoothSolver:  Solving for Uy, Initial residual = 3.7729074e-05, Final residual = 3.3350522e-06, No Iterations 10
smoothSolver:  Solving for Uz, Initial residual = 0.00012760868, Final residual = 1.1224042e-05, No Iterations 6
GAMG:  Solving for p, Initial residual = 8.782823e-05, Final residual = 5.812435e-06, No Iterations 3
time step continuity errors : sum local = 9.3144842e-06, global = 4.7647686e-07, cumulative = -0.0084201836
smoothSolver:  Solving for omega, Initial residual = 5.716874e-05, Final residual = 5.3180722e-06, No Iterations 12
smoothSolver:  Solving for k, Initial residual = 4.231571e-05, Final residual = 4.0966626e-06, No Iterations 13
ExecutionTime = 37.95 s  ClockTime = 38 s

Time = 218

rotorDisk output:
    min/max(AOA)   = -61.421159, -7.4754146
    Effective drag = -130.54367
    Effective lift = 1235.2721
smoothSolver:  Solving for Ux, Initial residual = 0.00012095105, Final residual = 1.0802727e-05, No Iterations 6
smoothSolver:  Solving for Uy, Initial residual = 3.6444814e-05, Final residual = 3.2282535e-06, No Iterations 10
smoothSolver:  Solving for Uz, Initial residual = 0.00012324351, Final residual = 1.0854165e-05, No Iterations 6
GAMG:  Solving for p, Initial residual = 8.4769635e-05, Final residual = 5.5576865e-06, No Iterations 3
time step continuity errors : sum local = 8.9058608e-06, global = 4.1743776e-07, cumulative = -0.0084197662
smoothSolver:  Solving for omega, Initial residual = 5.5207424e-05, Final residual = 5.1380011e-06, No Iterations 12
smoothSolver:  Solving for k, Initial residual = 4.0807049e-05, Final residual = 3.9504237e-06, No Iterations 13
ExecutionTime = 38.12 s  ClockTime = 38 s

Time = 219

rotorDisk output:
    min/max(AOA)   = -61.419613, -7.4752963
    Effective drag = -130.5393
    Effective lift = 1235.2466
smoothSolver:  Solving for Ux, Initial residual = 0.00011683563, Final residual = 1.0444979e-05, No Iterations 6
smoothSolver:  Solving for Uy, Initial residual = 3.5208282e-05, Final residual = 3.1239293e-06, No Iterations 10
smoothSolver:  Solving for Uz, Initial residual = 0.00011903861, Final residual = 1.0495688e-05, No Iterations 6
GAMG:  Solving for p, Initial residual = 8.1805885e-05, Final residual = 5.4268336e-06, No Iterations 3
time step continuity errors : sum local = 8.6958331e-06, global = 4.4995484e-07, cumulative = -0.0084193162
smoothSolver:  Solving for omega, Initial residual = 5.3313402e-05, Final residual = 4.9635232e-06, No Iterations 12
smoothSolver:  Solving for k, Initial residual = 3.9356703e-05, Final residual = 3.8097166e-06, No Iterations 13
ExecutionTime = 38.29 s  ClockTime = 38 s

Time = 220

rotorDisk output:
    min/max(AOA)   = -61.418116, -7.4751819
    Effective drag = -130.53507
    Effective lift = 1235.2219
smoothSolver:  Solving for Ux, Initial residual = 0.00011286715, Final residual = 1.0105716e-05, No Iterations 6
smoothSolver:  Solving for Uy, Initial residual = 3.4019318e-05, Final residual = 3.0248124e-06, No Iterations 10
smoothSolver:  Solving for Uz, Initial residual = 0.00011499741, Final residual = 1.0154061e-05, No Iterations 6
GAMG:  Solving for p, Initial residual = 7.8977391e-05, Final residual = 5.1910918e-06, No Iterations 3
time step continuity errors : sum local = 8.3177461e-06, global = 3.9222762e-07, cumulative = -0.008418924
smoothSolver:  Solving for omega, Initial residual = 5.1506792e-05, Final residual = 4.7961197e-06, No Iterations 12
smoothSolver:  Solving for k, Initial residual = 3.7963847e-05, Final residual = 3.674577e-06, No Iterations 13
ExecutionTime = 38.45 s  ClockTime = 38 s

Time = 221

rotorDisk output:
    min/max(AOA)   = -61.416666, -7.475071
    Effective drag = -130.53096
    Effective lift = 1235.198
smoothSolver:  Solving for Ux, Initial residual = 0.00010905556, Final residual = 9.7750251e-06, No Iterations 6
smoothSolver:  Solving for Uy, Initial residual = 3.2877622e-05, Final residual = 2.9279541e-06, No Iterations 10
smoothSolver:  Solving for Uz, Initial residual = 0.00011110787, Final residual = 9.8225785e-06, No Iterations 6
GAMG:  Solving for p, Initial residual = 7.6236171e-05, Final residual = 5.0720637e-06, No Iterations 3
time step continuity errors : sum local = 8.1267235e-06, global = 4.2111758e-07, cumulative = -0.0084185029
smoothSolver:  Solving for omega, Initial residual = 4.9764628e-05, Final residual = 4.6345861e-06, No Iterations 12
smoothSolver:  Solving for k, Initial residual = 3.6623857e-05, Final residual = 3.5444909e-06, No Iterations 13
ExecutionTime = 38.62 s  ClockTime = 39 s

Time = 222

rotorDisk output:
    min/max(AOA)   = -61.415261, -7.4749637
    Effective drag = -130.52698
    Effective lift = 1235.1748
smoothSolver:  Solving for Ux, Initial residual = 0.00010537435, Final residual = 9.460869e-06, No Iterations 6
smoothSolver:  Solving for Uy, Initial residual = 3.1777022e-05, Final residual = 2.8359522e-06, No Iterations 10
smoothSolver:  Solving for Uz, Initial residual = 0.00010736284, Final residual = 9.5059045e-06, No Iterations 6
GAMG:  Solving for p, Initial residual = 7.3615815e-05, Final residual = 4.8543423e-06, No Iterations 3
time step continuity errors : sum local = 7.7775793e-06, global = 3.6595911e-07, cumulative = -0.0084181369
smoothSolver:  Solving for omega, Initial residual = 4.8091881e-05, Final residual = 4.4793663e-06, No Iterations 12
smoothSolver:  Solving for k, Initial residual = 3.5335765e-05, Final residual = 3.4194841e-06, No Iterations 13
ExecutionTime = 38.78 s  ClockTime = 39 s

Time = 223

rotorDisk output:
    min/max(AOA)   = -61.4139, -7.4748597
    Effective drag = -130.52313
    Effective lift = 1235.1524
smoothSolver:  Solving for Ux, Initial residual = 0.00010183541, Final residual = 9.1543285e-06, No Iterations 6
smoothSolver:  Solving for Uy, Initial residual = 3.0720213e-05, Final residual = 2.7460897e-06, No Iterations 10
smoothSolver:  Solving for Uz, Initial residual = 0.0001037538, Final residual = 9.198522e-06, No Iterations 6
GAMG:  Solving for p, Initial residual = 7.1074304e-05, Final residual = 4.7450405e-06, No Iterations 3
time step continuity errors : sum local = 7.6021893e-06, global = 3.9158917e-07, cumulative = -0.0084177453
smoothSolver:  Solving for omega, Initial residual = 4.6463605e-05, Final residual = 4.3284451e-06, No Iterations 12
smoothSolver:  Solving for k, Initial residual = 3.4096652e-05, Final residual = 3.2992015e-06, No Iterations 13
ExecutionTime = 38.95 s  ClockTime = 39 s

Time = 224

rotorDisk output:
    min/max(AOA)   = -61.412582, -7.474759
    Effective drag = -130.51939
    Effective lift = 1235.1306
smoothSolver:  Solving for Ux, Initial residual = 9.8419194e-05, Final residual = 8.863403e-06, No Iterations 6
smoothSolver:  Solving for Uy, Initial residual = 2.9699624e-05, Final residual = 2.660714e-06, No Iterations 10
smoothSolver:  Solving for Uz, Initial residual = 0.00010027575, Final residual = 8.9054314e-06, No Iterations 6
GAMG:  Solving for p, Initial residual = 6.8646847e-05, Final residual = 4.5442554e-06, No Iterations 3
time step continuity errors : sum local = 7.2802393e-06, global = 3.4007237e-07, cumulative = -0.0084174052
smoothSolver:  Solving for omega, Initial residual = 4.4904321e-05, Final residual = 4.1836422e-06, No Iterations 12
smoothSolver:  Solving for k, Initial residual = 3.2906612e-05, Final residual = 3.1836796e-06, No Iterations 13
ExecutionTime = 39.12 s  ClockTime = 39 s

Time = 225

rotorDisk output:
    min/max(AOA)   = -61.411305, -7.4746614
    Effective drag = -130.51576
    Effective lift = 1235.1095
smoothSolver:  Solving for Ux, Initial residual = 9.5138306e-05, Final residual = 8.5794758e-06, No Iterations 6
smoothSolver:  Solving for Uy, Initial residual = 2.87204e-05, Final residual = 2.5772782e-06, No Iterations 10
smoothSolver:  Solving for Uz, Initial residual = 9.6927263e-05, Final residual = 8.620854e-06, No Iterations 6
GAMG:  Solving for p, Initial residual = 6.6293827e-05, Final residual = 4.4430948e-06, No Iterations 3
time step continuity errors : sum local = 7.1179347e-06, global = 3.6356851e-07, cumulative = -0.0084170417
smoothSolver:  Solving for omega, Initial residual = 4.3390696e-05, Final residual = 4.0434816e-06, No Iterations 12
smoothSolver:  Solving for k, Initial residual = 3.1762322e-05, Final residual = 3.0725005e-06, No Iterations 13
ExecutionTime = 39.29 s  ClockTime = 39 s


SIMPLE solution converged in 225 iterations

End

